# amber(Print,SoftOnly) 

./data/biphen/res082/biphen_lat_optff82.gjf nmol_natom 2_22

0 1
C-CP-0.03670  3.81673  2.80658 -0.71069
C-CA0--0.09434  3.03003  1.75596 -1.20720
C-CA0--0.09434  4.16551  3.83266 -1.60160
C-CA1--0.10688  2.62025  1.72697 -2.53391
H-HA0-0.08905  2.67266  0.89507 -0.65763
C-CP-0.03670  4.27805  2.82788  0.72077
C-CA1--0.10688  3.75825  3.80556 -2.92940
H-HA0-0.08905  4.75846  4.70986 -1.38035
C-CA2--0.08099  2.98754  2.75095 -3.39129
H-HA1-0.09433  2.01500  0.90739 -2.89788
C-CA0--0.09434  5.06348  3.87933  1.21756
C-CA0--0.09434  3.92758  1.80296  1.61233
H-HA1-0.09433  4.04221  4.60501 -3.60206
H-HA2-0.07994  2.66864  2.72865 -4.42531
C-CA1--0.10688  5.47084  3.90997  2.54492
H-HA0-0.08905  5.42030  4.74053  0.66810
C-CA1--0.10688  4.33197  1.83191  2.94099
H-HA0-0.08905  3.33390  0.92628  1.39127
C-CA2--0.08099  5.10176  2.88710  3.40291
H-HA1-0.09433  6.07403  4.73092  2.90926
H-HA1-0.09433  4.04526  1.03426  3.61469
H-HA2-0.07994  5.41686  2.91160  4.43804
C-CP-0.03670  7.90304  0.01224 -0.72112
C-CA0--0.09434  7.13402  1.07355 -1.22263
C-CA0--0.09434  8.23698 -1.02215 -1.60800
C-CA1--0.10688  6.72659  1.10427 -2.55004
H-HA0-0.08905  6.79149  1.94317 -0.67729
C-CP-0.03670  8.36417 -0.01015  0.71045
C-CA1--0.10688  7.83295 -0.99289 -2.93675
H-HA0-0.08905  8.81582 -1.90762 -1.38270
C-CA2--0.08099  7.07961  0.07198 -3.40349
H-HA1-0.09433  6.13655  1.93307 -2.91820
C-CA0--0.09434  9.13362 -1.07128  1.21166
C-CA0--0.09434  8.03141  1.02490  1.59710
H-HA1-0.09433  8.10611 -1.79864 -3.60644
H-HA2-0.07994  6.76437  0.09634 -4.43861
C-CA1--0.10688  9.54173 -1.10174  2.53886
H-HA0-0.08905  9.47688 -1.94040  0.66598
C-CA1--0.10688  8.43662  0.99600  2.92553
H-HA0-0.08905  7.45368  1.91117  1.37172
C-CA2--0.08099  9.18981 -0.06908  3.39223
H-HA1-0.09433 10.13265 -1.93003  2.90666
H-HA1-0.09433  8.16553  1.80271  3.59478
H-HA2-0.07994  9.50709 -0.09282  4.42674
Tv  8.15810 -0.01894 -0.00268
Tv  0.00390  5.60749 -0.00850
Tv -0.86053  0.01695  9.41638

