# amber(Print,SoftOnly) 

./data/biphen/res082/biphen_lat_iniff82.gjf nmol_natom 2_22

0 1
C-CP-0.03676  3.89170  2.76668 -0.76306
C-CA0--0.09613  3.12019  1.69289 -1.28828
C-CA0--0.09613  4.21307  3.82688 -1.65790
C-CA1--0.10735  2.69630  1.68941 -2.62018
H-HA0-0.08494  2.83367  0.84269 -0.68185
C-CP-0.03676  4.35197  2.77803  0.69184
C-CA1--0.10735  3.78797  3.80564 -2.99097
H-HA0-0.08494  4.79782  4.68276 -1.34410
C-CA2--0.07910  3.02928  2.73994 -3.47225
H-HA1-0.09685  2.10145  0.86152 -2.99230
C-CA0--0.09613  5.12498  3.85053  1.21768
C-CA0--0.09613  4.02770  1.71860  1.58645
H-HA1-0.09685  4.05134  4.62455 -3.65630
H-HA2-0.08571  2.69634  2.72672 -4.50565
C-CA1--0.10735  5.54620  3.85380  2.55071
H-HA0-0.08494  5.41458  4.69946  0.61070
C-CA1--0.10735  4.45058  1.73909  2.92004
H-HA0-0.08494  3.44203  0.86375  1.27218
C-CA2--0.07910  5.20960  2.80394  3.40251
H-HA1-0.09685  6.14196  4.68077  2.92405
H-HA1-0.09685  4.18476  0.92037  3.58470
H-HA2-0.08571  5.53985  2.81675  4.43677
C-CP-0.03676  7.82977  0.05922 -0.69230
C-CA0--0.09613  7.06340  1.13899 -1.21286
C-CA0--0.09613  8.15100 -0.99569 -1.59326
C-CA1--0.10735  6.64620  1.15383 -2.54700
H-HA0-0.08494  6.77666  1.98547 -0.60116
C-CP-0.03676  8.28663  0.03608  0.76356
C-CA1--0.10735  7.73225 -0.96351 -2.92802
H-HA0-0.08494  8.73178 -1.85539 -1.28315
C-CA2--0.07910  6.98021  0.10855 -3.40540
H-HA1-0.09685  6.05652  1.98691 -2.91606
C-CA0--0.09613  9.05275 -1.04402  1.28382
C-CA0--0.09613  7.96764  1.09193  1.66418
H-HA1-0.09685  7.99646 -1.77835 -3.59796
H-HA2-0.08571  6.65431  0.13084 -4.44098
C-CA1--0.10735  9.47172 -1.05851  2.61732
H-HA0-0.08494  9.33879 -1.89066  0.67215
C-CA1--0.10735  8.38737  1.05968  2.99863
H-HA0-0.08494  7.38909  1.95301  1.35364
C-CA2--0.07910  9.13919 -0.01277  3.47555
H-HA1-0.09685 10.06232 -1.89116  2.98588
H-HA1-0.09685  8.12526  1.87540  3.66836
H-HA2-0.08571  9.46735 -0.03462  4.51029
Tv  7.86482  0.00052  0.17216
Tv  0.00695  5.46910  0.03676
Tv -0.42889 -0.05834  9.46436

