# amber(Print,SoftOnly) 

./data/antcen/res092/antcen_lat_optff92.gjf nmol_natom 4_24

0 1
C-CA1-0.22089  0.46307 -0.46483 -1.24141
C-CA0--0.44266 -0.32562 -1.27086 -0.40909
C-CA1-0.22089  0.85380  0.82801 -0.80574
C-CA1-0.22089 -0.72908 -0.80420  0.85006
H-HA0-0.18872 -0.65680 -2.24559 -0.75704
C-CA2--0.23251  0.84335 -0.91115 -2.51726
C-CA0--0.44266  0.45116  1.29412  0.45382
C-CA2--0.23251  1.64133  1.63139 -1.64314
C-CA1-0.22089 -0.33957  0.48907  1.28483
C-CA2--0.23251 -1.52863 -1.60119  1.68204
C-CA3--0.07564  1.67571 -0.12053 -3.31980
H-HA1-0.12050  0.48729 -1.86553 -2.89231
H-HA0-0.18872  0.78234  2.26882  0.80193
C-CA3--0.07564  2.07696  1.14760 -2.88233
H-HA1-0.12050  1.89512  2.64190 -1.34580
C-CA2--0.23251 -0.74154  0.94590  2.55007
C-CA3--0.07564 -1.98641 -1.10674  2.90914
H-HA1-0.12050 -1.77726 -2.61385  1.38855
H-HA2-0.09372  2.00630 -0.48939 -4.28444
H-HA2-0.09372  2.70704  1.76724 -3.51324
C-CA3--0.07564 -1.59086  0.16426  3.34341
H-HA1-0.12050 -0.39289  1.90395  2.92211
H-HA2-0.09372 -2.63099 -1.71922  3.53243
H-HA2-0.09372 -1.94068  0.54378  4.29724
C-CA1-0.22089  8.93588 -0.44819 -1.27384
C-CA0--0.44266  8.14658 -1.25346 -0.44140
C-CA1-0.22089  9.33055  0.84326 -0.83789
C-CA1-0.22089  7.75074 -0.78936  0.82109
H-HA0-0.18872  7.81097 -2.22646 -0.79051
C-CA2--0.23251  9.33441 -0.90461 -2.54026
C-CA0--0.44266  8.93541  1.30713  0.42485
C-CA2--0.23251 10.13151  1.63911 -1.66982
C-CA1-0.22089  8.14754  0.50126  1.25801
C-CA2--0.23251  6.95172 -1.58641  1.65396
C-CA3--0.07564 10.18291 -0.12340 -3.33495
H-HA1-0.12050  8.98408 -1.86224 -2.91200
H-HA0-0.18872  9.27180  2.27969  0.77438
C-CA3--0.07564 10.58266  1.14620 -2.89997
H-HA1-0.12050 10.38700  2.64953 -1.37381
C-CA2--0.23251  7.75939  0.95309  2.52928
C-CA3--0.07564  6.51305 -1.09881  2.89073
H-HA1-0.12050  6.68867 -2.59398  1.35395
H-HA2-0.09372 10.52664 -0.50131 -4.29159
H-HA2-0.09372 11.22499  1.75921 -3.52510
C-CA3--0.07564  6.91739  0.16870  3.32776
H-HA1-0.12050  8.11456  1.90847  2.90265
H-HA2-0.09372  5.87749 -1.71479  3.51975
H-HA2-0.09372  6.58261  0.54215  4.28927
C-CA1-0.22089  3.91261  2.51677  1.27459
C-CA0--0.44266  4.69390  1.70976  0.43653
C-CA1-0.22089  3.52158  3.81083  0.84327
C-CA1-0.22089  5.08547  2.17465 -0.82697
H-HA0-0.18872  5.02279  0.73266  0.78019
C-CA2--0.23251  3.51192  2.05646  2.53887
C-CA0--0.44266  3.91360  4.27600 -0.42001
C-CA2--0.23251  2.72368  4.60614  1.67855
C-CA1-0.22089  4.69274  3.46800 -1.25917
C-CA2--0.23251  5.87892  1.37701 -1.66434
C-CA3--0.07564  2.66231  2.83546  3.33455
H-HA1-0.12050  3.86085  1.09724  2.90778
H-HA0-0.18872  3.58402  5.25272 -0.76409
C-CA3--0.07564  2.26794  4.10859  2.90512
H-HA1-0.12050  2.47474  5.61977  1.38828
C-CA2--0.23251  5.08242  3.92323 -2.52878
C-CA3--0.07564  6.32514  1.87035 -2.89607
H-HA1-0.12050  6.13041  0.36432 -1.37245
H-HA2-0.09372  2.31308  2.45301  4.28736
H-HA2-0.09372  1.62559  4.72026  3.53147
C-CA3--0.07564  5.92685  3.14167 -3.32743
H-HA1-0.12050  4.72695  4.87909 -2.90060
H-HA2-0.09372  6.96127  1.25575 -3.52587
H-HA2-0.09372  6.26850  3.52043 -4.28440
C-CA1-0.22089 12.38007  2.52217  1.24162
C-CA0--0.44266 13.15902  1.71301  0.40334
C-CA1-0.22089 11.99540  3.81840  0.81080
C-CA1-0.22089 13.56019  2.18047 -0.85630
H-HA0-0.18872 13.48412  0.73475  0.74689
C-CA2--0.23251 11.99975  2.07377  2.51674
C-CA0--0.44266 12.39516  4.28508 -0.44948
C-CA2--0.23251 11.21408  4.62323  1.65245
C-CA1-0.22089 13.17631  3.47696 -1.28638
C-CA2--0.23251 14.35746  1.38381 -1.69070
C-CA3--0.07564 11.16820  2.86366  3.32074
H-HA1-0.12050 12.35495  1.11840  2.89020
H-HA0-0.18872 12.07137  5.26397 -0.79252
C-CA3--0.07564 10.77285  4.13529  2.88803
H-HA1-0.12050 10.97050  5.63810  1.36175
C-CA2--0.23251 13.58088  3.93698 -2.54962
C-CA3--0.07564 14.82261  1.88332 -2.91299
H-HA1-0.12050 14.59902  0.36796 -1.40263
H-HA2-0.09372 10.83434  2.49165  4.28304
H-HA2-0.09372 10.14439  4.75493  3.52053
C-CA3--0.07564 14.43325  3.15797 -3.34221
H-HA1-0.12050 13.23212  4.89543 -2.92061
H-HA2-0.09372 15.46806  1.27208 -3.53659
H-HA2-0.09372 14.79086  3.54270 -4.29103
Tv 16.86065  0.00200  0.04700
Tv  0.03414  5.95889 -0.01651
Tv -6.38612 -0.00333  9.06294

