# amber(Print,SoftOnly) 

./data/antcen/res092/antcen_optff92.gjf nmol_natom 1_24

0 1
C-CA1-0.22089  0.00543 -0.00000 -0.00348
C-CA0--0.44266 -0.00961  0.00015  1.39954
C-CA1-0.22089  1.24468 -0.00007 -0.69657
C-CA1-0.22089  1.19370  0.00040  2.12114
H-HA0-0.18872 -0.95854  0.00013  1.93026
C-CA2--0.23251 -1.19688 -0.00008 -0.73074
C-CA0--0.44266  2.44800  0.00017  0.02503
C-CA2--0.23251  1.25438 -0.00058 -2.10169
C-CA1-0.22089  2.43296  0.00033  1.42805
C-CA2--0.23251  1.18401  0.00090  3.52626
C-CA3--0.07564 -1.17398 -0.00045 -2.13207
H-HA1-0.12050 -2.15151  0.00024 -0.21276
H-HA0-0.18872  3.39693  0.00020 -0.50569
C-CA3--0.07564  0.04839 -0.00084 -2.81572
H-HA1-0.12050  2.19542 -0.00087 -2.64396
C-CA2--0.23251  3.63527  0.00041  2.15531
C-CA3--0.07564  2.39000  0.00117  4.24029
H-HA1-0.12050  0.24297  0.00119  4.06853
H-HA2-0.09372 -2.10544 -0.00028 -2.69074
H-HA2-0.09372  0.05999 -0.00144 -3.90181
C-CA3--0.07564  3.61237  0.00078  3.55665
H-HA1-0.12050  4.58990  0.00009  1.63733
H-HA2-0.09372  2.37840  0.00176  5.32638
H-HA2-0.09372  4.54383  0.00061  4.11531

