# amber(Print,SoftOnly) 

./data/antcen/res092/antcen_lat_iniff92.gjf nmol_natom 4_24

0 1
C-CA1-0.22090  0.50221 -0.46363 -1.22622
C-CA0--0.44266 -0.29076 -1.27311 -0.40082
C-CA1-0.22090  0.88177  0.82899 -0.79348
C-CA1-0.22090 -0.70919 -0.79818  0.85079
H-HA0-0.18872 -0.59133 -2.26329 -0.73715
C-CA2--0.23251  0.91334 -0.92424 -2.48545
C-CA0--0.44266  0.46535  1.30282  0.45926
C-CA2--0.23251  1.67179  1.63375 -1.62454
C-CA1-0.22090 -0.33098  0.49483  1.28271
C-CA2--0.23251 -1.50586 -1.59941  1.67874
C-CA3--0.07564  1.71135 -0.11506 -3.30210
H-HA1-0.12050  0.61621 -1.91038 -2.83373
H-HA0-0.18872  0.76385  2.29397  0.79471
C-CA3--0.07564  2.09180  1.16072 -2.87195
H-HA1-0.12050  1.95930  2.63048 -1.30591
C-CA2--0.23251 -0.75422  0.96083  2.53576
C-CA3--0.07564 -1.93906 -1.12068  2.91950
H-HA1-0.12050 -1.79132 -2.59658  1.36085
H-HA2-0.09372  2.03313 -0.47703 -4.27450
H-HA2-0.09372  2.70726  1.79029 -3.51063
C-CA3--0.07564 -1.56260  0.15696  3.34737
H-HA1-0.12050 -0.46190  1.94905  2.88113
H-HA2-0.09372 -2.56294 -1.74637  3.55391
H-HA2-0.09372 -1.89610  0.52511  4.31358
C-CA1-0.22090  8.94702 -0.45801 -1.26686
C-CA0--0.44266  8.14676 -1.26362 -0.44466
C-CA1-0.22090  9.33214  0.83262 -0.83334
C-CA1-0.22090  7.73152 -0.78896  0.80806
H-HA0-0.18872  7.84208 -2.25243 -0.78199
C-CA2--0.23251  9.36645 -0.92402 -2.52103
C-CA0--0.44266  8.91680  1.30745  0.41922
C-CA2--0.23251 10.13194  1.63174 -1.66065
C-CA1-0.22090  8.11853  0.50097  1.24248
C-CA2--0.23251  6.93147 -1.58830  1.63524
C-CA3--0.07564 10.17680 -0.12224 -3.33256
H-HA1-0.12050  9.06901 -1.91039 -2.86772
H-HA0-0.18872  9.22145  2.29627  0.75647
C-CA3--0.07564 10.55993  1.15316 -2.90326
H-HA1-0.12050 10.42343  2.62715 -1.34158
C-CA2--0.23251  7.70451  0.96476  2.49926
C-CA3--0.07564  6.51077 -1.11249  2.88148
H-HA1-0.12050  6.63476 -2.58190  1.31399
H-HA2-0.09372 10.50594 -0.49060 -4.30010
H-HA2-0.09372 11.18467  1.77761 -3.53805
C-CA3--0.07564  6.89804  0.16099  3.31283
H-HA1-0.12050  8.00460  1.95010  2.84689
H-HA2-0.09372  5.88811 -1.73755  3.51758
H-HA2-0.09372  6.57422  0.52627  4.28332
C-CA1-0.22090  3.90072  2.51201  1.26640
C-CA0--0.44266  4.69184  1.70500  0.43707
C-CA1-0.22090  3.52298  3.80728  0.84056
C-CA1-0.22090  5.10422  2.18225 -0.81556
H-HA0-0.18872  4.98906  0.71177  0.76760
C-CA2--0.23251  3.48041  2.04158  2.51860
C-CA0--0.44266  3.93733  4.28552 -0.41113
C-CA2--0.23251  2.72985  4.60679  1.67383
C-CA1-0.22090  4.72591  3.47730 -1.24185
C-CA2--0.23251  5.89143  1.37977 -1.65154
C-CA3--0.07564  2.67553  2.84347  3.33560
H-HA1-0.12050  3.77194  1.05122  2.85865
H-HA0-0.18872  3.63865  5.27806 -0.74248
C-CA3--0.07564  2.30048  4.12384  2.91432
H-HA1-0.12050  2.44351  5.60541  1.36034
C-CA2--0.23251  5.13826  3.94396 -2.49821
C-CA3--0.07564  6.31320  1.85906 -2.89593
H-HA1-0.12050  6.17661  0.38064 -1.33857
H-HA2-0.09372  2.34363  2.47154  4.30089
H-HA2-0.09372  1.67973  4.74804  3.55317
C-CA3--0.07564  5.93643  3.13860 -3.31833
H-HA1-0.12050  4.84361  4.93282 -2.84060
H-HA2-0.09372  6.92755  1.23170 -3.53787
H-HA2-0.09372  6.26080  3.50680 -4.28749
C-CA1-0.22090 12.34201  2.52100  1.22681
C-CA0--0.44266 13.12646  1.71046  0.39451
C-CA1-0.22090 11.96995  3.81835  0.80190
C-CA1-0.22090 13.54407  2.18907 -0.85603
H-HA0-0.18872 13.42040  0.71623  0.72449
C-CA2--0.23251 11.93045  2.05602  2.48432
C-CA0--0.44266 12.38606  4.29611 -0.44950
C-CA2--0.23251 11.18624  4.62326  1.63864
C-CA1-0.22090 13.17382  3.48703 -1.27992
C-CA2--0.23251 14.33226  1.38670 -1.69079
C-CA3--0.07564 11.13746  2.86497  3.30602
H-HA1-0.12050 12.22248  1.06635  2.82700
H-HA0-0.18872 12.09363  5.29105 -0.77883
C-CA3--0.07564 10.76418  4.14542  2.88352
H-HA1-0.12050 10.90430  5.62334  1.32579
C-CA2--0.23251 13.59634  3.95679 -2.53190
C-CA3--0.07564 14.76673  1.86970 -2.92943
H-HA1-0.12050 14.61035  0.38544 -1.37956
H-HA2-0.09372 10.81370  2.49904  4.27625
H-HA2-0.09372 10.15258  4.77475  3.52609
C-CA3--0.07564 14.39831  3.15240 -3.34924
H-HA1-0.12050 13.30883  4.94835 -2.87210
H-HA2-0.09372 15.38500  1.24329 -3.56858
H-HA2-0.09372 14.73269  3.52405 -4.31379
Tv 16.76235 -0.02158  0.04693
Tv  0.05300  5.99807 -0.02555
Tv -6.34623  0.00612  8.98515

