%nprocshared=32
%mem=120GB
%chk=naphol.chk
#p opt freq wb97xd/6-311++g(d,p) scf=maxcycle=512

naphol_zmat.gjf nmol_natom 1_19

0 1
 C                  0.02842200    0.43351500   -0.00003400
 C                  0.39141700   -0.93840900    0.00002300
 C                 -1.35587100    0.76903300    0.00001000
 C                 -0.62105100   -1.93341000   -0.00002500
 C                  1.76973100   -1.27146900    0.00006300
 C                  1.03892100    1.42573300   -0.00007900
 C                 -2.31523800   -0.21015800   -0.00000200
 O                 -1.65217200    2.09622400    0.00011700
 C                 -1.93857400   -1.57121700   -0.00005000
 H                 -0.33374400   -2.97901800   -0.00004200
 C                  2.72958200   -0.29565000    0.00004100
 H                  2.05157900   -2.31941500    0.00013100
 C                  2.36057400    1.06746200   -0.00004600
 H                  0.74732300    2.46845900   -0.00016100
 H                 -3.36761700    0.05853200    0.00009600
 H                 -2.60322900    2.21398500   -0.00023000
 H                 -2.71334800   -2.32959200   -0.00010600
 H                  3.77944400   -0.56709500    0.00005500
 H                  3.12948400    1.83176300   -0.00008500

