# pbepbe/3-21g/auto

naphol nmol_natom 4_19

0 1
 C                  2.27712600    0.06621200    3.27549300
 C                  0.99446100   -0.07772800    2.71090800
 C                  3.16534700    0.98455000    2.64910800
 C                  0.65712300    0.68419500    1.56247600
 C                  0.09875200   -0.98550900    3.34060100
 C                  2.61218300   -0.69523000    4.43172300
 C                  2.81588200    1.69609300    1.55006900
 O                  4.40801400    1.08290900    3.23212700
 C                  1.53795100    1.53488000    1.00427200
 H                 -0.18998700    0.59447200    1.18872500
 C                  0.44777800   -1.69273400    4.42995100
 H                 -0.75476400   -1.09298400    2.98835600
 C                  1.71810600   -1.55359200    4.99110900
 H                  3.45662000   -0.60358900    4.81043700
 H                  3.42093200    2.28672700    1.16154800
 H                  4.77712700    1.76854300    2.97535800
 H                  1.29537700    2.01947800    0.24814300
 H                 -0.16266400   -2.28048900    4.81280000
 H                  1.95189000   -2.04586700    5.74511100
 C                  7.86790300    2.46521200    2.63268300
 C                  9.15056800    2.32127200    3.19726900
 C                  6.97968200    3.38355000    3.25906800
 C                  9.48790600    3.08319500    4.34570000
 C                 10.04627700    1.41349100    2.56757500
 C                  7.53284700    1.70377000    1.47645300
 C                  7.32914600    4.09509300    4.35810800
 O                  5.73701600    3.48190900    2.67604900
 C                  8.60707900    3.93388000    4.90390400
 H                 10.33501600    2.99347200    4.71945100
 C                  9.69725200    0.70626600    1.47822600
 H                 10.89979400    1.30601500    2.91982100
 C                  8.42692400    0.84540800    0.91706700
 H                  6.68841000    1.79541100    1.09773900
 H                  6.72409800    4.68572700    4.74662900
 H                  5.36790200    4.16754300    2.93281900
 H                  8.84965300    4.41847800    5.66003300
 H                 10.30769400    0.11851100    1.09537600
 H                  8.19313900    0.35313300    0.16306600
 C                  4.84193300   -0.06621300    8.54086000
 C                  6.12459900    0.07772800    9.10544500
 C                  3.95371200   -0.98455000    9.16724500
 C                  6.46193700   -0.68419500   10.25387700
 C                  7.02030700    0.98550900    8.47575200
 C                  4.50687700    0.69523000    7.38463000
 C                  4.30317600   -1.69609300   10.26628400
 O                  2.71104600   -1.08290900    8.58422600
 C                  5.58110900   -1.53488000   10.81208000
 H                  7.30904600   -0.59447200   10.62762700
 C                  6.67128200    1.69273400    7.38640200
 H                  7.87382300    1.09298400    8.82799700
 C                  5.40095400    1.55359200    6.82524400
 H                  3.66244000    0.60358800    7.00591600
 H                  3.69812700   -2.28672700   10.65480500
 H                  2.34193200   -1.76854300    8.84099500
 H                  5.82368300   -2.01947800   11.56820900
 H                  7.28172500    2.28048900    7.00355200
 H                  5.16717000    2.04586700    6.07124200
 C                 -0.74884300    2.33278800    9.18366900
 C                 -2.03150900    2.47672700    8.61908400
 C                  0.13937700    1.41445000    8.55728400
 C                 -2.36884700    1.71480500    7.47065300
 C                 -2.92721800    3.38450900    9.24877700
 C                 -0.41378700    3.09423000   10.33990000
 C                 -0.21008800    0.70290700    7.45824500
 O                  1.38204400    1.31609100    9.14030400
 C                 -1.48801900    0.86412000    6.91244800
 H                 -3.21595700    1.80452800    7.09690100
 C                 -2.57819200    4.09173400   10.33812700
 H                 -3.78073400    3.49198400    8.89653200
 C                 -1.30786400    3.95259200   10.89928500
 H                  0.43065000    3.00258800   10.71861400
 H                  0.39496200    0.11227300    7.06972400
 H                  1.75115700    0.63045700    8.88353400
 H                 -1.73059300    0.37952200    6.15632000
 H                 -3.18863500    4.67948900   10.72097700
 H                 -1.07408000    4.44486700   11.65328700
 Tv                13.17100000    0.00000000    0.00000000
 Tv                 0.00000000    4.79800000    0.00000000
 Tv                -6.05193924    0.00000000   11.81635339

