# amber(Print,SoftOnly) 

./data/acanil/res083/acanil_optff83.gjf nmol_natom 1_19

0 1
C-CA0-0.49781 -0.25622 -0.30311 -0.06913
C-CA1--0.35097 -0.74335  0.99566 -0.03640
C-CA1--0.35097 -1.20178 -1.31346 -0.01721
C-CA2--0.04394 -2.10654  1.27136 -0.00655
H-HA0-0.18300 -0.04829  1.82194 -0.08116
N-N--0.80501  1.11781 -0.62897 -0.07221
C-CA2--0.04394 -2.56695 -1.04695  0.00818
H-HA0-0.18300 -0.87608 -2.34305 -0.05178
C-CA3--0.19027 -3.04084  0.25212  0.03336
H-HA1-0.09003 -2.44068  2.30083  0.01426
C-C-0.85734  2.16728  0.22429  0.19521
H-HN-0.42484  1.15583 -1.55001  0.31612
H-HA1-0.09003 -3.26951 -1.86996  0.03645
H-HA2-0.10172 -4.10232  0.46249  0.04570
C-C3--0.47247  3.48058 -0.53687  0.04380
O-O--0.67570  2.17327  1.32170 -0.29289
H-HC-0.16851  3.89514 -0.73253  1.03503
H-HC-0.16851  4.11684 -0.02120 -0.68068
H-HC-0.16851  3.27762 -1.52855 -0.37298

