# amber(Print,SoftOnly) 

./data/acanil/res083/acanil_iniff83.gjf nmol_natom 1_19

0 1
C-CA0-0.50115 -0.29583 -0.25574 -0.00287
C-CA1--0.33661 -0.77962  1.06360 -0.00151
C-CA1--0.33661 -1.21245 -1.31574 -0.00218
C-CA2--0.02468 -2.15729  1.31356  0.00174
H-HA0-0.18930 -0.10512  1.91171 -0.00193
N-N--0.81562  1.09248 -0.60533 -0.00014
C-CA2--0.02468 -2.59057 -1.06824  0.00125
H-HA0-0.18930 -0.85935 -2.34357 -0.00338
C-CA3--0.17880 -3.06235  0.24782  0.00372
H-HA1-0.09783 -2.52445  2.33771  0.00359
C-C-0.86225  2.20191  0.16053 -0.00444
H-HN-0.38524  1.25366 -1.59540  0.00633
H-HA1-0.09783 -3.29482 -1.89753  0.00276
H-HA2-0.11288 -4.13231  0.44290  0.00741
C-C3--0.48253  3.49887 -0.60951  0.01009
O-O--0.63692  2.19517  1.37104 -0.01753
H-HC-0.13356  4.00953 -0.44116  0.95983
H-HC-0.13356  4.14099 -0.25622 -0.79894
H-HC-0.13356  3.35336 -1.68471 -0.11667

