%nprocshared=32
%mem=120GB
%chk=_conf030.chk
#P wB97XD/6-311++G(d,p) scf=maxcycle=512

_conf030.gjf nmol_natom 1_42 

0 1
C 
C    1     1.39412829 
C    1     1.39435449    2   118.86443127 
C    2     1.39416084    1   121.15294870    3     0.03668482 
H    2     1.08488355    1   119.42236619    3  -179.97409048 
C    1     1.48467131    2   120.55714816    4   179.25839056 
C    3     1.39437784    1   121.11776116    2    -0.05351271 
H    3     1.08487775    1   119.41869036    2   177.23008049 
C    4     1.39432447    2   118.86473838    1     0.01008406 
C    4     1.48466627    2   120.54641880    1   179.19454736 
C    6     1.39684980    1   120.78434920    2    60.00000000 
C    6     1.39686820    1   120.67653841    2  -120.00000000 
C    7     1.48449863    3   120.56496838    1  -179.96325804 
H    9     1.08487920    4   119.41824946    2   177.22245984 
C   10     1.39685361    4   120.76946845    2   -42.52368674 
C   10     1.39686289    4   120.69448769    2   137.43107516 
C   11     1.38888939    6   120.73800730    1   179.94058542 
H   11     1.08476410    6   119.46912378    1    -1.41050605 
C   12     1.38882428    6   120.76493111    1  -179.95082712 
H   12     1.08482758    6   119.44182626    1    -1.23602505 
C   13     1.39682899    7   120.74134419    3    42.89023273 
C   13     1.39683158    7   120.73791110    3  -137.12494058 
C   15     1.38888263   10   120.74219100    4   179.94601190 
H   15     1.08476334   10   119.47085903    4    -1.40606944 
C   16     1.38886088   10   120.76338989    4  -179.95592713 
H   16     1.08483431   10   119.44215232    4    -1.23439681 
C   17     1.39007919   11   120.20743432    6     0.00349958 
H   17     1.08435060   11   119.71318733    6   179.50116090 
H   19     1.08435858   12   119.73823132    6   179.53683762 
C   21     1.38882373   13   120.76699356    7   179.99297883 
H   21     1.08479380   13   119.43526230    7     1.32183327 
C   22     1.38881869   13   120.76647403    7  -179.97118338 
H   22     1.08479982   13   119.43203605    7     1.34657928 
C   23     1.39007007   15   120.20732995   10     0.00573957 
H   23     1.08434813   15   119.71220819   10   179.50724368 
H   25     1.08436328   16   119.73539424   10   179.53636455 
H   27     1.08412515   17   120.21790854   11   179.98397203 
C   30     1.39008059   21   120.18795226   13    -0.02169059 
H   30     1.08435324   21   119.73787119   13  -179.52151214 
H   32     1.08435430   22   119.73704300   13  -179.52886928 
H   34     1.08412314   23   120.22152803   15   179.98800213 
H   38     1.08411439   30   120.21547163   21  -179.98600656 

