%nprocshared=32
%mem=120GB
%chk=antcen_monomeropt.chk
#p opt freq wb97xd/6-311++g(d,p) scf=maxcycle=512

antcen_zmat.gjf nmol_natom 1_24

0 1
 C                  0.00000000    0.00000000    0.00000000
 C                  0.00000000    0.00000000    1.39428529
 C                  1.25021598    0.00000000   -0.69940586
 C                  1.18817253    0.00032576    2.12397646
 H                 -0.94804426    0.00016936    1.92437395
 C                 -1.21076084   -0.00017117   -0.76037652
 C                  2.43838851    0.00032576    0.03028531
 C                  1.23644791   -0.00057317   -2.12921823
 C                  2.43838851    0.00032576    1.42457060
 C                  1.20194060    0.00089894    3.55378883
 C                 -1.18144376   -0.00040180   -2.12020989
 H                 -2.15701911    0.00027269   -0.22886101
 H                  3.38643277    0.00015640   -0.49980335
 C                  0.06245732   -0.00088695   -2.81600968
 H                  2.18479133   -0.00088741   -2.65672702
 C                  3.64914935    0.00049693    2.18494712
 C                  2.37593119    0.00121272    4.24058029
 H                  0.25359718    0.00121318    4.08129763
 H                 -2.10676306   -0.00023916   -2.68534181
 H                  0.06503139   -0.00147104   -3.90024728
 C                  3.61983227    0.00072756    3.54478049
 H                  4.59540762    0.00005307    1.65343161
 H                  2.37335712    0.00179681    5.32481788
 H                  4.54515157    0.00056492    4.10991242

