# pm6

benzac01 nmol_natom 4_15

0 1
 C                  1.96942200    2.71258200   19.52992400
 C                  2.81719700    2.50991200   18.44698700
 C                  0.83025300    1.92613900   19.67591500
 C                  2.51726900    1.53472300   17.50786000
 H                  3.62532500    3.06841500   18.34675600
 C                  2.28784800    3.75790600   20.53442000
 C                  0.54221100    0.93754300   18.72589300
 H                  0.24280400    2.06795700   20.46033700
 C                  1.38749700    0.75601600   17.64513400
 H                  3.10770800    1.39239000   16.73433300
 O                  3.35982700    4.42986300   20.37971500
 O                  1.49421300    3.93375900   21.50187500
 H                 -0.27748900    0.39193200   18.82612400
 H                  1.19762700    0.04641300   16.97401600
 H                  3.53321600    5.08995900   20.96149400
 C                  4.79983300    0.13408200   13.15431800
 C                  3.95205900   -0.06858800   14.23725600
 C                  5.93900300   -0.65236000   13.00832800
 C                  4.25198700   -1.04377700   15.17638400
 H                  3.14393000    0.48991500   14.33748800
 C                  4.48140800    1.17940600   12.14982300
 C                  6.22704500   -1.64095700   13.95835000
 H                  6.52645200   -0.51054300   12.22390700
 C                  5.38175800   -1.82248400   15.03910900
 H                  3.66154700   -1.18611000   15.94991000
 O                  3.40942800    1.85136300   12.30452800
 O                  5.27504200    1.35526000   11.18236800
 H                  7.04674400   -2.18656800   13.85812000
 H                  5.57162900   -2.53208700   15.71022700
 H                  3.23604000    2.51145900   11.72274900
 C                  3.38633700    5.02291800    8.63517800
 C                  4.23411200    5.22558800    7.55223900
 C                  2.24716800    5.80936100    8.78116700
 C                  3.93418400    6.20077700    6.61311200
 H                  5.04224000    4.66708500    7.45200800
 C                  3.70476300    3.97759400    9.63967300
 C                  1.95912600    6.79795700    7.83114500
 H                  1.65971900    5.66754300    9.56558900
 C                  2.80441300    6.97948400    6.75038600
 H                  4.52462300    6.34311000    5.83958500
 O                  4.77674200    3.30563700    9.48496700
 O                  2.91112900    3.80174100   10.60712700
 H                  1.13942600    7.34356800    7.93137600
 H                  2.61454200    7.68908700    6.07926900
 H                  4.95013100    2.64554100   10.06674700
 C                  6.21674800    2.44441800    2.25957100
 C                  5.36897400    2.64708800    3.34250900
 C                  7.35591800    3.23086100    2.11358100
 C                  5.66890100    3.62227700    4.28163600
 H                  4.56084500    2.08858500    3.44274000
 C                  5.89832300    1.39909400    1.25507500
 C                  7.64396000    4.21945800    3.06360300
 H                  7.94336700    3.08904300    1.32915900
 C                  6.79867300    4.40098400    4.14436200
 H                  5.07846200    3.76461000    5.05516300
 O                  4.82634400    0.72713700    1.40978000
 O                  6.69195700    1.22324000    0.28762100
 H                  8.46365900    4.76506800    2.96337200
 H                  6.98854400    5.11058700    4.81547800
 H                  4.65295500    0.06704100    0.82800100
 Tv                 5.51000000    0.00000000    0.00000000
 Tv                 0.00000000    5.15700000    0.00000000
 Tv                -2.83382867    0.00000000   21.78949619
