# amber(Print,SoftOnly) 

./data/bpheno/res090/bpheno_optff90.gjf nmol_natom 1_24

0 1
C-CA0--0.06446  1.31929  0.37027 -0.04645
C-CA1--0.00004  1.44610 -0.87087 -0.67164
C-CA2--0.08258  2.42660  0.97494  0.53712
C-CA3--0.14725  2.66731 -1.52618 -0.72137
H-HA0-0.03700  0.58067 -1.33357 -1.12841
C-C-0.47863  0.00002  1.07789  0.00008
C-CA4--0.11051  3.64632  0.31617  0.48660
H-HA1-0.11977  2.34084  1.93952  1.02241
C-CA5--0.08036  3.76810 -0.92120 -0.13509
H-HA2-0.12416  2.75744 -2.48871 -1.20867
C-CA0--0.06446 -1.31928  0.37032  0.04651
O-O--0.50008  0.00003  2.30552  0.00014
H-HA3-0.11064  4.51765  0.77337  0.93793
H-HA4-0.10437  4.73112 -1.41516 -0.16235
C-CA1--0.00004 -1.44627 -0.87063  0.67204
C-CA2--0.08258 -2.42643  0.97484 -0.53752
C-CA3--0.14725 -2.66750 -1.52590  0.72166
H-HA0-0.03700 -0.58095 -1.33322  1.12915
C-CA4--0.11051 -3.64617  0.31612 -0.48710
H-HA1-0.11977 -2.34052  1.93928 -1.02307
C-CA5--0.08036 -3.76813 -0.92107  0.13492
H-HA2-0.12416 -2.75777 -2.48829  1.20921
H-HA3-0.11064 -4.51737  0.77321 -0.93879
H-HA4-0.10437 -4.73118 -1.41500  0.16209

