# amber(Print,SoftOnly) 

./data/bpheno/res090/bpheno_iniff90.gjf nmol_natom 1_24

0 1
C-CA0--0.06446  1.30956  0.39248 -0.02816
C-CA1--0.00004  1.42612 -0.84831 -0.68160
C-CA2--0.08258  2.45741  0.95887  0.55716
C-CA3--0.14725  2.65596 -1.51600 -0.72797
H-HA0-0.03700  0.56591 -1.29739 -1.17234
C-C-0.47863  0.00002  1.14404  0.00010
C-CA4--0.11051  3.68654  0.29082  0.51000
H-HA1-0.11977  2.39834  1.92513  1.05469
C-CA5--0.08036  3.78600 -0.94809 -0.13072
H-HA2-0.12416  2.73475 -2.47380 -1.23689
C-CA0--0.06446 -1.30955  0.39253  0.02825
O-O--0.50008  0.00002  2.36227  0.00016
H-HA3-0.11064  4.56615  0.73819  0.96743
H-HA4-0.10437  4.74234 -1.46476 -0.17110
C-CA1--0.00004 -1.42630 -0.84807  0.68202
C-CA2--0.08258 -2.45723  0.95877 -0.55754
C-CA3--0.14725 -2.65616 -1.51573  0.72825
H-HA0-0.03700 -0.56621 -1.29701  1.17310
C-CA4--0.11051 -3.68638  0.29076 -0.51053
H-HA1-0.11977 -2.39800  1.92489 -1.05534
C-CA5--0.08036 -3.78603 -0.94797  0.13052
H-HA2-0.12416 -2.73510 -2.47337  1.23743
H-HA3-0.11064 -4.56586  0.73801 -0.96833
H-HA4-0.10437 -4.74239 -1.46461  0.17079

