# amber(Print,SoftOnly) 

./data/benzac/res097/benzac_lat_optff97.gjf nmol_natom 8_15

0 1
C-CA0--0.01341  1.93821  2.70975 19.56181
C-CA1--0.11934  2.75681  2.55267 18.44078
C-CA1--0.11934  0.79968  1.92255 19.74366
C-CA2--0.08789  2.43756  1.59151 17.50207
H-HA0-0.12599  3.63931  3.16269 18.30165
C-C-0.70288  2.25640  3.72908 20.59746
C-CA2--0.08789  0.48938  0.96143 18.79690
H-HA0-0.12599  0.16050  2.04654 20.60863
C-CA3--0.09024  1.31174  0.80560 17.69099
H-HA1-0.10290  3.06016  1.45871 16.63190
O-OH--0.61217  3.39908  4.40696 20.38380
O-O0--0.60901  1.63083  4.04518 21.57497
H-HA1-0.10290 -0.38011  0.33355 18.91881
H-HA2-0.10638  1.07256  0.04875 16.95931
H-HO-0.47224  3.58535  5.10327 21.02941
C-CA0--0.01341  7.41901  2.70219 19.57260
C-CA1--0.11934  8.23683  2.54985 18.45032
C-CA1--0.11934  6.28178  1.91275 19.75288
C-CA2--0.08789  7.91939  1.58976 17.50984
H-HA0-0.12599  9.11787  3.16223 18.31196
C-C-0.70288  7.73740  3.71806 20.61168
C-CA2--0.08789  5.97290  0.95312 18.80410
H-HA0-0.12599  5.64296  2.03340 20.61857
C-CA3--0.09024  6.79537  0.80100 17.69767
H-HA1-0.10290  8.54248  1.45943 16.63952
O-OH--0.61217  8.88263  4.39291 20.40243
O-O0--0.60901  7.11134  4.03258 21.58944
H-HA1-0.10290  5.10480  0.32313 18.92515
H-HA2-0.10638  6.55764  0.04495 16.96452
H-HO-0.47224  9.07041  5.08593 21.05110
C-CA0--0.01341  4.85328  0.09924 13.12304
C-CA1--0.11934  4.02840 -0.05639 14.23939
C-CA1--0.11934  5.98938 -0.69210 12.94576
C-CA2--0.08789  4.33746 -1.02190 15.17714
H-HA0-0.12599  3.14805  0.55753 14.37475
C-C-0.70288  4.54418  1.12163 12.08804
C-CA2--0.08789  6.28978 -1.65743 13.89144
H-HA0-0.12599  6.63343 -0.56849 12.08461
C-CA3--0.09024  5.46035 -1.81278 14.99212
H-HA1-0.10290  3.70853 -1.15512 16.04282
O-OH--0.61217  3.39016  1.78511 12.28374
O-O0--0.60901  5.18077  1.44567 11.12051
H-HA1-0.10290  7.15674 -2.28903 13.77283
H-HA2-0.10638  5.69133 -2.57342 15.72253
H-HO-0.47224  3.20301  2.47646 11.63311
C-CA0--0.01341 10.33298  0.09906 13.12932
C-CA1--0.11934  9.50505 -0.06223 14.24275
C-CA1--0.11934 11.47050 -0.69012 12.95186
C-CA2--0.08789  9.81397 -1.02994 15.17832
H-HA0-0.12599  8.62331  0.54968 14.37816
C-C-0.70288 10.02635  1.12545 12.09761
C-CA2--0.08789 11.77017 -1.65817 13.89486
H-HA0-0.12599 12.11683 -0.56223 12.09296
C-CA3--0.09024 10.93888 -1.81811 14.99344
H-HA1-0.10290  9.18397 -1.16641 16.04272
O-OH--0.61217  8.87491  1.79229 12.29644
O-O0--0.60901 10.66435  1.45188 11.13178
H-HA1-0.10290 12.63838 -2.28811 13.77572
H-HA2-0.10638 11.17034 -2.57992 15.72248
H-HO-0.47224  8.69107  2.48826 11.64983
C-CA0--0.01341  3.36319  5.05794  8.66017
C-CA1--0.11934  4.19112  5.21923  7.54674
C-CA1--0.11934  2.22567  5.84712  8.83764
C-CA2--0.08789  3.88220  6.18694  6.61118
H-HA0-0.12599  5.07286  4.60732  7.41133
C-C-0.70288  3.66982  4.03155  9.69189
C-CA2--0.08789  1.92600  6.81517  7.89463
H-HA0-0.12599  1.57934  5.71923  9.69654
C-CA3--0.09024  2.75729  6.97511  6.79606
H-HA1-0.10290  4.51220  6.32341  5.74677
O-OH--0.61217  4.82126  3.36471  9.49306
O-O0--0.60901  3.03182  3.70512 10.65771
H-HA1-0.10290  1.05779  7.44511  8.01377
H-HA2-0.10638  2.52583  7.73692  6.06702
H-HO-0.47224  5.00510  2.66874 10.13966
C-CA0--0.01341  8.84289  5.05776  8.66646
C-CA1--0.11934  9.66777  5.21339  7.55011
C-CA1--0.11934  7.70679  5.84910  8.84373
C-CA2--0.08789  9.35871  6.17890  6.61236
H-HA0-0.12599 10.54812  4.59947  7.41474
C-C-0.70288  9.15199  4.03537  9.70145
C-CA2--0.08789  7.40639  6.81443  7.89805
H-HA0-0.12599  7.06274  5.72549  9.70489
C-CA3--0.09024  8.23582  6.96978  6.79738
H-HA1-0.10290  9.98764  6.31212  5.74667
O-OH--0.61217 10.30601  3.37189  9.50575
O-O0--0.60901  8.51540  3.71133 10.66898
H-HA1-0.10290  6.53943  7.44603  8.01666
H-HA2-0.10638  8.00484  7.73042  6.06697
H-HO-0.47224 10.49316  2.68054 10.15639
C-CA0--0.01341  6.27716  2.45481  2.21690
C-CA1--0.11934  5.45934  2.60715  3.33917
C-CA1--0.11934  7.41439  3.24425  2.03662
C-CA2--0.08789  5.77678  3.56724  4.27966
H-HA0-0.12599  4.57830  1.99477  3.47754
C-C-0.70288  5.95877  1.43894  1.17782
C-CA2--0.08789  7.72328  4.20388  2.98540
H-HA0-0.12599  8.05321  3.12360  1.17093
C-CA3--0.09024  6.90080  4.35600  4.09182
H-HA1-0.10290  5.15369  3.69757  5.14998
O-OH--0.61217  4.81354  0.76409  1.38707
O-O0--0.60901  6.58483  1.12442  0.20005
H-HA1-0.10290  8.59137  4.83387  2.86435
H-HA2-0.10638  7.13853  5.11205  4.82497
H-HO-0.47224  4.62576  0.07107  0.73840
C-CA0--0.01341 11.75796  2.44725  2.22768
C-CA1--0.11934 10.93936  2.60433  3.34871
C-CA1--0.11934 12.89649  3.23445  2.04584
C-CA2--0.08789 11.25861  3.56549  4.28743
H-HA0-0.12599 10.05686  1.99431  3.48784
C-C-0.70288 11.43977  1.42792  1.19204
C-CA2--0.08789 13.20679  4.19557  2.99259
H-HA0-0.12599 13.53567  3.11046  1.18086
C-CA3--0.09024 12.38443  4.35140  4.09850
H-HA1-0.10290 10.63601  3.69829  5.15760
O-OH--0.61217 10.29709  0.75004  1.40570
O-O0--0.60901 12.06534  1.11182  0.21452
H-HA1-0.10290 14.07628  4.82345  2.87069
H-HA2-0.10638 12.62361  5.10825  4.83018
H-HO-0.47224 10.11082  0.05373  0.76009
Tv 10.94838 -0.02324  0.00797
Tv  0.02404  5.22514 -0.00647
Tv -2.84324 -0.03783 21.83884

