# amber(Print,SoftOnly) 

./data/benzac/res097/benzac_optff97.gjf nmol_natom 1_15

0 1
C-CA0--0.01341  0.19781  0.04077  0.00001
C-CA1--0.11934 -0.45014 -1.19932 -0.00049
C-CA1--0.11934 -0.52554  1.23564  0.00050
C-CA2--0.08789 -1.83331 -1.23711 -0.00052
H-HA0-0.12599  0.10944 -2.12518 -0.00088
C-C-0.70288  1.68535  0.13376 -0.00024
C-CA2--0.08789 -1.90845  1.18759  0.00054
H-HA0-0.12599 -0.02581  2.19623  0.00091
C-CA3--0.09024 -2.54447 -0.04562 -0.00000
H-HA1-0.10290 -2.35494 -2.18414 -0.00099
O-OH--0.61217  2.32973 -1.04738  0.00081
O-O0--0.60901  2.38921  1.10800 -0.00096
H-HA1-0.10290 -2.48753  2.10070  0.00098
H-HA2-0.10638 -3.62485 -0.07886 -0.00003
H-HO-0.47224  3.28612 -0.96265  0.00104

