# am1

bipheno nmol_natom 4_24

0 1
 C                  1.99201900    5.74264300    9.70034600
 C                  1.49076500    5.10558400   10.83868000
 C                  2.69407000    4.99271600    8.74922600
 C                  1.67817400    3.73734200   11.02011600
 H                  1.01984200    5.60857300   11.49290700
 C                  1.71988100    7.18135100    9.39105100
 C                  2.89355000    3.63399900    8.94390400
 H                  3.03399200    5.41499800    7.96894500
 C                  2.37945100    3.00831000   10.07019900
 H                  1.32780600    3.30512500   11.79028300
 C                  1.52898900    8.17596100   10.49097900
 O                  1.65705000    7.54832500    8.22767400
 H                  3.38374000    3.13101000    8.30484800
 H                  2.50859500    2.07504900   10.19143700
 C                  2.16472700    8.06043000   11.72972400
 C                  0.74584700    9.30494800   10.22045200
 C                  2.01964300    9.07050600   12.68024300
 H                  2.69430200    7.29647200   11.92392200
 C                  0.58490000   10.29320800   11.17686900
 H                  0.32189200    9.39303000    9.37515800
 C                  1.23216700   10.18413000   12.40766900
 H                  2.46139400    8.99768400   13.51795100
 H                  0.03404600   11.04508000   10.99447200
 H                  1.13513500   10.86891700   13.05804200
 C                  5.74578100    0.62159200    8.35890500
 C                  6.24703600   -0.01546600    7.22057000
 C                  5.04373000   -0.12833300    9.31002500
 C                  6.05962600   -1.38370800    7.03913500
 H                  6.71795800    0.48752400    6.56634400
 C                  6.01791900    2.06030000    8.66820000
 C                  4.84425000   -1.48705000    9.11534700
 H                  4.70380900    0.29394800   10.09030500
 C                  5.35834900   -2.11274100    7.98905100
 H                  6.40999400   -1.81592400    6.26896800
 C                  6.20881100    3.05491100    7.56827100
 O                  6.08075000    2.42727500    9.83157600
 H                  4.35406000   -1.99004000    9.75440300
 H                  5.22920500   -3.04600000    7.86781400
 C                  5.57307300    2.93937900    6.32952600
 C                  6.99195300    4.18389700    7.83879900
 C                  5.71815700    3.94945600    5.37900700
 H                  5.04349900    2.17542100    6.13532900
 C                  7.15290000    5.17215800    6.88238000
 H                  7.41590800    4.27197900    8.68409200
 C                  6.50563300    5.06307900    5.65158200
 H                  5.27640600    3.87663500    4.54129900
 H                  7.70375300    5.92403100    7.06477800
 H                  6.60266400    5.74786700    5.00120900
  C                  1.87688100    4.49945700    3.68059700
 C                  2.37813500    5.13651600    4.81893000
 C                  1.17483000    5.24938300    2.72947600
 C                  2.19072600    6.50475700    5.00036500
 H                  2.84905800    4.63352600    5.47315600
 C                  2.14901900    3.06074900    3.37130100
 C                  0.97535000    6.60810000    2.92415400
 H                  0.83490900    4.82710200    1.94919600
 C                  1.48944900    7.23379000    4.05045000
 H                  2.54109400    6.93697400    5.77053300
 C                  2.33991100    2.06613900    4.47122900
 O                  2.21185000    2.69377500    2.20792400
 H                  0.48516000    7.11109000    2.28509700
 H                  1.36030500    8.16705000    4.17168600
 C                  1.70417300    2.18167000    5.70997400
 C                  3.12305400    0.93715200    4.20070200
 C                  1.84925700    1.17159400    6.66049300
 H                  1.17459800    2.94562800    5.90417200
 C                  3.28400000   -0.05110800    5.15712000
 H                  3.54700800    0.84907000    3.35540900
 C                  2.63673300    0.05797000    6.38791800
 H                  1.40750600    1.24441500    7.49820100
 H                  3.83485400   -0.80298000    4.97472200
 H                  2.73376500   -0.62681700    7.03829100
 C                  5.86091900    9.62050700    2.33915400
 C                  5.35966400   10.25756500    1.20082000
 C                  6.56297000   10.37043300    3.29027500
 C                  5.54707400   11.62580800    1.01938500
 H                  4.88874200    9.75457600    0.54659400
 C                  5.58878100    8.18179900    2.64844900
 C                  6.76245000   11.72915000    3.09559700
 H                  6.90289100    9.94815200    4.07055500
 C                  6.24835100   12.35484000    1.96930100
 H                  5.19670600   12.05802400    0.24921700
 C                  5.39789000    7.18718900    1.54852100
 O                  5.52595000    7.81482500    3.81182600
 H                  7.25264000   12.23214000    3.73465300
 H                  6.37749500   13.28810000    1.84806400
 C                  6.03362700    7.30272000    0.30977700
 C                  4.61474700    6.05820200    1.81904800
 C                  5.88854300    6.29264400   -0.64074200
 H                  6.56320200    8.06667800    0.11557900
 C                  4.45380100    5.06994200    0.86263100
 H                  4.19079300    5.97012000    2.66434100
 C                  5.10106800    5.17902000   -0.36816900
 H                  6.33029400    6.36546500   -1.47845100
 H                  3.90294600    4.31806900    1.04502800
 H                  5.00403500    4.49423300   -1.01854100
  Tv                 7.73780000    0.00000000    0.00000000
 Tv                 0.00000000   10.24210000    0.00000000
 Tv                 0.00000000    0.00000000   12.03950000

