%nprocshared=32
%mem=120GB
%chk=bpheno.chk
#p opt freq wb97xd/6-311++g(d,p) scf=maxcycle=512

bpheno_zmat.gjf nmol_natom 1_24

0 1
 C                  1.29432300    0.35767400   -0.03166600
 C                  1.42169900   -0.87407800   -0.67537000
 C                  2.41838900    0.95015000    0.54636500
 C                  2.65761600   -1.50641500   -0.73464800
 H                  0.56001800   -1.32994500   -1.14941100
 C                  0.00002400    1.11266400    0.00013700
 C                  3.64639400    0.30737900    0.50548300
 H                  2.31120100    1.91775300    1.02257500
 C                  3.76751400   -0.92156800   -0.13674600
 H                  2.75360400   -2.45572300   -1.24913100
 C                 -1.29431000    0.35771000    0.03172600
 O                  0.00002400    2.32586400    0.00030500
 H                  4.51282500    0.76629400    0.96790100
 H                  4.72950000   -1.42047900   -0.17555200
 C                 -1.42187500   -0.87383400    0.67577200
 C                 -2.41819900    0.95003800   -0.54679900
 C                 -2.65782800   -1.50612000    0.73493900
 H                 -0.56030300   -1.32957900    1.15013900
 C                 -3.64622000    0.30729700   -0.50604800
 H                 -2.31087800    1.91750100   -1.02327000
 C                 -3.76754500   -0.92144100    0.13655000
 H                 -2.75397300   -2.45525300    1.24972200
 H                 -4.51252100    0.76607300   -0.96884600
 H                 -4.72955800   -1.42030200    0.17526700

