# amber(Print,SoftOnly) 

./data/benzac/res084/benzac_optff84.gjf nmol_natom 1_15

0 1
C-CA0--0.01721  0.20841  0.03135 -0.00003
C-CA1--0.11829 -0.46058 -1.19524 -0.00052
C-CA1--0.11829 -0.52172  1.21991  0.00046
C-CA2--0.09221 -1.84259 -1.22921 -0.00051
H-HA0-0.13886  0.09009 -2.12677 -0.00094
C-C-0.69564  1.69420  0.10636 -0.00007
C-CA2--0.09221 -1.90388  1.18351  0.00050
H-HA0-0.13886 -0.01871  2.17897  0.00086
C-CA3--0.09453 -2.55151 -0.04011  0.00000
H-HA1-0.10286 -2.36400 -2.17716 -0.00092
O-OH--0.61007  2.37196 -1.06309  0.00086
O-O0--0.62253  2.32186  1.13212 -0.00081
H-HA1-0.10286 -2.47284  2.10365  0.00092
H-HA2-0.10448 -3.63327 -0.06734  0.00001
H-HO-0.48177  3.32521 -0.93449  0.00092

