# amber(Print,SoftOnly) 

./data/benzac/res084/benzac_lat_optff84.gjf nmol_natom 8_15

0 1
C-CA0--0.01721  1.96294  2.72042 19.55558
C-CA1--0.11829  2.79756  2.53641 18.45286
C-CA1--0.11829  0.82424  1.92951 19.70544
C-CA2--0.09221  2.50056  1.56895 17.51501
H-HA0-0.13886  3.68412  3.14307 18.32210
C-C-0.69564  2.26579  3.75296 20.57848
C-CA2--0.09221  0.53154  0.95998 18.76322
H-HA0-0.13886  0.16449  2.05967 20.55473
C-CA3--0.09453  1.37275  0.78661 17.67865
H-HA1-0.10286  3.14990  1.42898 16.66439
O-OH--0.61007  3.42757  4.42832 20.43314
O-O0--0.62253  1.55450  4.01284 21.51446
H-HA1-0.10286 -0.34361  0.33757 18.87443
H-HA2-0.10448  1.14695  0.02500 16.94658
H-HO-0.48177  3.57180  5.11351 21.10763
C-CA0--0.01721  7.44911  2.72386 19.55374
C-CA1--0.11829  8.27984  2.54227 18.44782
C-CA1--0.11829  6.31018  1.93350 19.70510
C-CA2--0.09221  7.97942  1.57710 17.50865
H-HA0-0.13886  9.16662  3.14846 18.31597
C-C-0.69564  7.75657  3.75270 20.57895
C-CA2--0.09221  6.01379  0.96633 18.76158
H-HA0-0.13886  5.65349  2.06188 20.55701
C-CA3--0.09453  6.85176  0.79495 17.67405
H-HA1-0.10286  8.62644  1.43834 16.65602
O-OH--0.61007  8.92192  4.42244 20.43637
O-O0--0.62253  7.04649  4.01287 21.51570
H-HA1-0.10286  5.13864  0.34401 18.87447
H-HA2-0.10448  6.62384  0.03494 16.94101
H-HO-0.48177  9.06865  5.10615 21.11179
C-CA0--0.01721  4.81473  0.11024 13.12511
C-CA1--0.11829  3.98325 -0.08365 14.22836
C-CA1--0.11829  5.96095 -0.66899 12.97306
C-CA2--0.09221  4.28984 -1.05051 15.16392
H-HA0-0.13886  3.09066  0.51388 14.36036
C-C-0.69564  4.49915  1.13958 12.10293
C-CA2--0.09221  6.26348 -1.63785 13.91286
H-HA0-0.13886  6.61854 -0.53069 12.12350
C-CA3--0.09453  5.42472 -1.82189 14.99762
H-HA1-0.10286  3.64195 -1.19926 16.01435
O-OH--0.61007  3.32604  1.79525 12.24509
O-O0--0.62253  5.20737  1.41015 11.16783
H-HA1-0.10286  7.14429 -2.25152 13.79954
H-HA2-0.10448  5.65819 -2.58314 15.72791
H-HO-0.48177  3.17178  2.48040 11.57283
C-CA0--0.01721 10.30029  0.11506 13.12897
C-CA1--0.11829  9.46575 -0.08188 14.22936
C-CA1--0.11829 11.44720 -0.66340 12.97821
C-CA2--0.09221  9.77066 -1.05003 15.16398
H-HA0-0.13886  8.57264  0.51497 14.36035
C-C-0.69564  9.98750  1.14761 12.10924
C-CA2--0.09221 11.74779 -1.63373 13.91712
H-HA0-0.13886 12.10723 -0.52278 12.13091
C-CA3--0.09453 10.90661 -1.82013 14.99944
H-HA1-0.10286  9.12102 -1.20015 16.01263
O-OH--0.61007  8.81764  1.80838 12.25514
O-O0--0.62253 10.69594  1.41803 11.17425
H-HA1-0.10286 12.62935 -2.24640 13.80565
H-HA2-0.10448 11.13915 -2.58219 15.72907
H-HO-0.48177  8.66479  2.49451 11.58357
C-CA0--0.01721  3.39588  5.04194  8.66052
C-CA1--0.11829  4.23042  5.23888  7.56013
C-CA1--0.11829  2.24897  5.82040  8.81129
C-CA2--0.09221  3.92551  6.20703  6.62552
H-HA0-0.13886  5.12353  4.64203  7.42915
C-C-0.69564  3.70867  4.00939  9.68025
C-CA2--0.09221  1.94838  6.79073  7.87238
H-HA0-0.13886  1.58894  5.67978  9.65858
C-CA3--0.09453  2.78956  6.97713  6.79006
H-HA1-0.10286  4.57515  6.35715  5.77686
O-OH--0.61007  4.87853  3.34862  9.53435
O-O0--0.62253  3.00023  3.73897 10.61524
H-HA1-0.10286  1.06682  7.40340  7.98385
H-HA2-0.10448  2.55702  7.73919  6.06043
H-HO-0.48177  5.03138  2.66249 10.20592
C-CA0--0.01721  8.88144  5.04676  8.66439
C-CA1--0.11829  9.71292  5.24065  7.56114
C-CA1--0.11829  7.73522  5.82599  8.81644
C-CA2--0.09221  9.40633  6.20751  6.62557
H-HA0-0.13886 10.60551  4.64312  7.42913
C-C-0.69564  9.19702  4.01742  9.68656
C-CA2--0.09221  7.43269  6.79485  7.87664
H-HA0-0.13886  7.07763  5.68769  9.66600
C-CA3--0.09453  8.27145  6.97889  6.79187
H-HA1-0.10286 10.05422  6.35626  5.77514
O-OH--0.61007 10.37013  3.36175  9.54441
O-O0--0.62253  8.48880  3.74685 10.62167
H-HA1-0.10286  6.55188  7.40852  7.98996
H-HA2-0.10448  8.03798  7.74014  6.06158
H-HO-0.48177 10.52439  2.67660 10.21667
C-CA0--0.01721  6.24706  2.43314  2.23575
C-CA1--0.11829  5.41633  2.61473  3.34168
C-CA1--0.11829  7.38599  3.22350  2.08440
C-CA2--0.09221  5.71675  3.57990  4.28084
H-HA0-0.13886  4.52955  2.00854  3.47352
C-C-0.69564  5.93960  1.40430  1.21055
C-CA2--0.09221  7.68238  4.19067  3.02792
H-HA0-0.13886  8.04268  3.09512  1.23249
C-CA3--0.09453  6.84441  4.36205  4.11545
H-HA1-0.10286  5.06973  3.71866  5.13348
O-OH--0.61007  4.77425  0.73456  1.35312
O-O0--0.62253  6.64968  1.14413  0.27379
H-HA1-0.10286  8.55753  4.81299  2.91502
H-HA2-0.10448  7.07233  5.12206  4.84849
H-HO-0.48177  4.62752  0.05085  0.67770
C-CA0--0.01721 11.73323  2.43658  2.23391
C-CA1--0.11829 10.89861  2.62059  3.33664
C-CA1--0.11829 12.87193  3.22749  2.08406
C-CA2--0.09221 11.19561  3.58805  4.27449
H-HA0-0.13886 10.01205  2.01393  3.46740
C-C-0.69564 11.43038  1.40404  1.21102
C-CA2--0.09221 13.16463  4.19702  3.02627
H-HA0-0.13886 13.53168  3.09733  1.23477
C-CA3--0.09453 12.32342  4.37039  4.11084
H-HA1-0.10286 10.54628  3.72802  5.12511
O-OH--0.61007 10.26860  0.72868  1.35636
O-O0--0.62253 12.14167  1.14416  0.27503
H-HA1-0.10286 14.03978  4.81943  2.91507
H-HA2-0.10448 12.54922  5.13200  4.84292
H-HO-0.48177 10.12437  0.04349  0.68187
Tv 10.94597  0.01903  0.00211
Tv -0.01128  5.26017 -0.00656
Tv -2.93187 -0.04413 21.81717

