%nprocshared=32
%mem=120GB
%chk=_conf020.chk
#P wB97XD/6-311++G(d,p) scf=maxcycle=512

_conf020.gjf nmol_natom 1_22 

0 1
C 
C    1     1.40491871 
C    1     1.40495292    2   118.20503621 
C    2     1.39393730    1   120.91089460    3     0.05365643 
H    2     1.08593095    1   119.34520940    3  -178.36243070 
C    1     1.48449301    2   120.90144423    4  -179.96388019 
C    3     1.39389842    1   120.91050598    2     0.03587687 
H    3     1.08593608    1   119.34159615    2  -178.38281524 
C    4     1.39606958    2   120.24555868    1    -0.09283196 
H    4     1.08627898    2   119.66792041    1  -179.51486187 
C    6     1.40492034    1   120.90156908    2    10.00000000 
C    6     1.40495329    1   120.89324856    2  -170.00000000 
H    7     1.08627928    3   119.67027175    1  -179.51258183 
H    9     1.08597601    4   120.26025350    2  -179.95233103 
C   11     1.39393437    6   120.91099656    1  -179.95869964 
H   11     1.08593173    6   119.34475907    1     1.61891886 
C   12     1.39390147    6   120.91022615    1  -179.94297913 
H   12     1.08593608    6   119.34175044    1     1.63241608 
C   15     1.39607161   11   120.24535737    6    -0.10315482 
H   15     1.08627786   11   119.66861247    6  -179.51844254 
H   17     1.08627825   12   119.67027980    6  -179.51590091 
H   19     1.08597601   15   120.25988597   11  -179.94731581 

