# amber(Print,SoftOnly) 

./data/biphen/res090/biphen_lat_optff90.gjf nmol_natom 2_22

0 1
C-CP-0.03676  3.79297  2.82099 -0.70282
C-CA0--0.09613  2.99080  1.78506 -1.20271
C-CA0--0.09613  4.15469  3.83239 -1.60367
C-CA1--0.10735  2.58712  1.73710 -2.53154
H-HA0-0.08494  2.61826  0.93737 -0.64098
C-CP-0.03676  4.28398  2.82179  0.71700
C-CA1--0.10735  3.76696  3.80964 -2.93813
H-HA0-0.08494  4.75870  4.70184 -1.37676
C-CA2--0.07910  2.98419  2.75445 -3.38957
H-HA1-0.09685  1.97204  0.92174 -2.89165
C-CA0--0.09613  5.08563  3.85800  1.21720
C-CA0--0.09613  3.92179  1.81061  1.61785
H-HA1-0.09685  4.06867  4.60102 -3.61389
H-HA2-0.08571  2.67491  2.72691 -4.42739
C-CA1--0.10735  5.48893  3.90598  2.54615
H-HA0-0.08494  5.45733  4.70634  0.65588
C-CA1--0.10735  4.30884  1.83348  2.95247
H-HA0-0.08494  3.31713  0.94167  1.39100
C-CA2--0.07910  5.09146  2.88862  3.40406
H-HA1-0.09685  6.10313  4.72184  2.90666
H-HA1-0.09685  4.00609  1.04252  3.62836
H-HA2-0.08571  5.39943  2.91645  4.44226
C-CP-0.03676  7.89646 -0.00075 -0.71710
C-CA0--0.09613  7.11076  1.04537 -1.22183
C-CA0--0.09613  8.24261 -1.02162 -1.61338
C-CA1--0.10735  6.70776  1.09338 -2.55084
H-HA0-0.08494  6.75308  1.90236 -0.66450
C-CP-0.03676  8.38800 -0.00222  0.70253
C-CA1--0.10735  7.85548 -0.99889 -2.94801
H-HA0-0.08494  8.83328 -1.89914 -1.38260
C-CA2--0.07910  7.08915  0.06610 -3.40428
H-HA1-0.09685  6.10655  1.91733 -2.91486
C-CA0--0.09613  9.17401 -1.04818  1.20707
C-CA0--0.09613  8.04182  1.01861  1.59888
H-HA1-0.09685  8.14520 -1.79781 -3.62021
H-HA2-0.08571  6.78127  0.09394 -4.44253
C-CA1--0.10735  9.57577 -1.09706  2.53644
H-HA0-0.08494  9.53354 -1.90397  0.64908
C-CA1--0.10735  8.42795  0.99508  2.93380
H-HA0-0.08494  7.45267  1.89712  1.36777
C-CA2--0.07910  9.19365 -0.07039  3.39022
H-HA1-0.09685 10.17760 -1.92066  2.90020
H-HA1-0.09685  8.13874  1.79416  3.60593
H-HA2-0.08571  9.50158 -0.09858  4.42844
Tv  8.20702 -0.03613 -0.00396
Tv  0.01827  5.61145  0.00140
Tv -0.89689  0.02847  9.41366

