# amber(Print,SoftOnly) 

./data/biphen/res090/biphen_iniff90.gjf nmol_natom 1_22

0 1
C-CP-0.03676 -0.75426  0.00000 -0.00000
C-CA0--0.09613 -1.48081 -1.15680  0.38199
C-CA0--0.09613 -1.48081  1.15681 -0.38200
C-CA1--0.10735 -2.88047 -1.14749  0.38363
H-HA0-0.08494 -0.96496 -2.06187  0.69418
C-CP-0.03676  0.75426  0.00000  0.00000
C-CA1--0.10735 -2.88047  1.14750 -0.38363
H-HA0-0.08494 -0.96496  2.06187 -0.69418
C-CA2--0.07910 -3.57939  0.00000 -0.00000
H-HA1-0.09685 -3.42727 -2.03742  0.68671
C-CA0--0.09613  1.48081 -1.15680 -0.38199
C-CA0--0.09613  1.48081  1.15681  0.38200
H-HA1-0.09685 -3.42727  2.03742 -0.68672
H-HA2-0.08571 -4.66707  0.00000 -0.00000
C-CA1--0.10735  2.88047 -1.14749 -0.38363
H-HA0-0.08494  0.96496 -2.06187 -0.69418
C-CA1--0.10735  2.88047  1.14750  0.38363
H-HA0-0.08494  0.96496  2.06187  0.69418
C-CA2--0.07910  3.57939  0.00000  0.00000
H-HA1-0.09685  3.42727 -2.03742 -0.68671
H-HA1-0.09685  3.42727  2.03742  0.68672
H-HA2-0.08571  4.66707  0.00000  0.00000

