# amber(Print,SoftOnly) 

./data/tphben/res082/tphben_lat_iniff82.gjf nmol_natom 4_42

0 1
C-CP0-0.04231  2.26297  2.09460 -1.44000
C-CA0--0.16358  2.03803  2.13105 -0.04416
C-CA0--0.16358  2.26479  3.33706 -2.11573
C-CP0-0.04231  1.81446  3.32905  0.67518
H-HA0-0.09080  2.03364  1.19531  0.50003
C-CP1-0.11652  2.48836  0.79051 -2.17904
C-CP0-0.04231  2.05679  4.57527 -1.46414
H-HA0-0.09080  2.46751  3.34274 -3.18111
C-CA0--0.16358  1.82581  4.53191 -0.06912
C-CP1-0.11652  1.56980  3.32486  2.17048
C-CA1--0.15998  3.01287 -0.35167 -1.51741
C-CA1--0.15998  2.18304  0.67301 -3.56086
C-CP1-0.11652  2.09115  5.88506 -2.22425
H-HA0-0.09080  1.62263  5.46226  0.44931
C-CA1--0.15998  1.02615  2.18718  2.82371
C-CA1--0.15998  1.88204  4.45840  2.96578
C-CA2--0.07151  3.22284 -1.54775 -2.21225
H-HA1-0.10679  3.27591 -0.32004 -0.46524
C-CA2--0.07151  2.40207 -0.52778 -4.24246
H-HA1-0.10679  1.76142  1.50543 -4.11563
C-CA1--0.15998  1.80094  5.93474 -3.61311
C-CA1--0.15998  2.41583  7.10293 -1.57176
C-CA2--0.07151  0.80171  2.19134  4.20463
H-HA1-0.10679  0.76147  1.29471  2.26706
C-CA2--0.07151  1.65666  4.44605  4.34586
H-HA1-0.10679  2.31413  5.35274  2.52629
C-CA3--0.11162  2.91970 -1.63624 -3.57144
H-HA2-0.09073  3.62673 -2.41320 -1.69290
H-HA2-0.09073  2.15860 -0.59999 -5.29806
C-CA2--0.07151  1.83873  7.14677 -4.30988
H-HA1-0.10679  1.51788  5.04051 -4.15677
C-CA2--0.07151  2.46367  8.30462 -2.28532
H-HA1-0.10679  2.65813  7.12554 -0.51372
C-CA3--0.11162  1.11747  3.31717  4.96489
H-HA2-0.09073  0.37669  1.31566  4.68917
H-HA2-0.09073  1.90443  5.32105  4.93792
H-HA3-0.09350  3.08224 -2.56834 -4.10522
C-CA3--0.11162  2.17632  8.32699 -3.64955
H-HA2-0.09073  1.60090  7.17374 -5.36928
H-HA2-0.09073  2.72875  9.22691 -1.77769
H-HA3-0.09350  0.93890  3.31394  6.03613
H-HA3-0.09350  2.20763  9.26335 -4.19515
C-CP0-0.04231  5.73302  7.68210 -1.44347
C-CA0--0.16358  5.51173  7.65570 -0.04662
C-CA0--0.16358  5.71967  6.43597 -2.11176
C-CP0-0.04231  5.27569  6.46453  0.68049
H-HA0-0.09080  5.51894  8.59403  0.49167
C-CP1-0.11652  5.97005  8.97850 -2.19261
C-CP0-0.04231  5.50074  5.20420 -1.45177
H-HA0-0.09080  5.91945  6.42202 -3.17769
C-CA0--0.16358  5.27239  5.25771 -0.05689
C-CP1-0.11652  5.03051  6.47761  2.17581
C-CA1--0.15998  6.51762 10.11677 -1.54343
C-CA1--0.15998  5.65429  9.09146 -3.57261
C-CP1-0.11652  5.52046  3.88967 -2.20297
H-HA0-0.09080  5.05874  4.33245  0.46687
C-CA1--0.15998  4.49661  7.62260  2.82410
C-CA1--0.15998  5.32953  5.34340  2.97558
C-CA2--0.07151  6.73910 11.30490 -2.24859
H-HA1-0.10679  6.79022 10.08733 -0.49353
C-CA2--0.07151  5.88538 10.28403 -4.26484
H-HA1-0.10679  5.21458  8.26185 -4.11740
C-CA1--0.15998  5.22471  3.83389 -3.59030
C-CA1--0.15998  5.83571  2.67343 -1.54280
C-CA2--0.07151  4.26735  7.62413  4.20440
H-HA1-0.10679  4.24211  8.51574  2.26369
C-CA2--0.07151  5.09885  5.36107  4.35475
H-HA1-0.10679  5.75392  4.44350  2.54001
C-CA3--0.11162  6.42531 11.38903 -3.60573
H-HA2-0.09073  7.16047 12.16773 -1.73898
H-HA2-0.09073  5.63293 10.35324 -5.31888
C-CA2--0.07151  5.24965  2.61704 -4.27885
H-HA1-0.10679  4.94762  4.72718 -4.13895
C-CA2--0.07151  5.87018  1.46657 -2.24807
H-HA1-0.10679  6.08049  2.65565 -0.48515
C-CA3--0.11162  4.56815  6.49678  4.96869
H-HA2-0.09073  3.84915  8.50514  4.68525
H-HA2-0.09073  5.33446  4.48443  4.94977
H-HA3-0.09350  6.59648 12.31528 -4.14709
C-CA3--0.11162  5.57925  1.43820 -3.61157
H-HA2-0.09073  5.00844  2.58590 -5.33736
H-HA2-0.09073  6.12727  0.54527 -1.73414
H-HA3-0.09350  4.38365  6.50354  6.03897
H-HA3-0.09350  5.60100  0.49812 -4.15106
C-CP0-0.04231  1.88401 12.07775  4.26993
C-CA0--0.16358  2.09179 12.11006  5.66853
C-CA0--0.16358  1.89939 13.32100  3.59556
C-CP0-0.04231  2.31605 13.30548  6.39195
H-HA0-0.09080  2.08222 11.17333  6.21099
C-CP1-0.11652  1.65974 10.77634  3.52639
C-CP0-0.04231  2.11186 14.55646  4.25136
H-HA0-0.09080  1.70831 13.32905  2.52796
C-CA0--0.16358  2.32632 14.50868  5.64876
C-CP1-0.11652  2.53994 13.30005  7.89036
C-CA1--0.15998  1.11515  9.63788  4.17825
C-CA1--0.15998  1.98832 10.65770  2.15015
C-CP1-0.11652  2.10144 15.86871  3.49453
H-HA0-0.09080  2.53413 15.43603  6.17115
C-CA1--0.15998  3.06264 12.15775  8.55216
C-CA1--0.15998  2.22866 14.43789  8.68001
C-CA2--0.07151  0.90824  8.44390  3.47888
H-HA1-0.10679  0.83454  9.67081  5.22597
C-CA2--0.07151  1.77133  9.45940  1.46395
H-HA1-0.10679  2.42687 11.48700  1.60372
C-CA1--0.15998  2.39949 15.91805  2.10729
C-CA1--0.15998  1.79466 17.09016  4.14962
C-CA2--0.07151  3.26990 12.16217  9.93580
H-HA1-0.10679  3.32436 11.26173  8.00007
C-CA2--0.07151  2.43672 14.42584 10.06274
H-HA1-0.10679  1.81126 15.33595  8.23384
C-CA3--0.11162  1.23317  8.35471  2.12483
H-HA2-0.09073  0.48983  7.58073  3.99050
H-HA2-0.09073  2.03229  9.38647  0.41292
C-CA2--0.07151  2.38598 17.13308  1.41484
H-HA1-0.10679  2.66923 15.02099  1.56135
C-CA2--0.07151  1.77239 18.29516  3.44067
H-HA1-0.10679  1.54778 17.11448  5.20655
C-CA3--0.11162  2.95661 13.29259 10.69025
H-HA2-0.09073  3.68014 11.28334 10.42715
H-HA2-0.09073  2.19146 15.30484 10.64995
H-HA3-0.09350  1.07151  7.42497  1.58724
C-CA3--0.11162  2.06681 18.31702  2.07793
H-HA2-0.09073  2.62853 17.15928  0.35656
H-HA2-0.09073  1.52266 19.22031  3.95131
H-HA3-0.09350  3.12271 13.28985 11.76353
H-HA3-0.09350  2.05504 19.25583  1.53572
C-CP0-0.04231  5.35538 17.67373  4.26159
C-CA0--0.16358  5.55570 17.64474  5.66168
C-CA0--0.16358  5.36109 16.42754  3.59229
C-CP0-0.04231  5.76636 16.44994  6.39047
H-HA0-0.09080  5.55286 18.58337  6.20082
C-CP1-0.11652  5.14954 18.97449  3.51092
C-CP0-0.04231  5.55663 15.19279  4.25472
H-HA0-0.09080  5.17521 16.41688  2.52375
C-CA0--0.16358  5.76743 15.24414  5.65213
C-CP1-0.11652  5.98919 16.45684  7.88892
C-CA1--0.15998  4.61210 20.12110  4.15425
C-CA1--0.15998  5.48839 19.08445  2.13630
C-CP1-0.11652  5.53390 13.87666  3.50597
H-HA0-0.09080  5.96548 14.31689  6.17845
C-CA1--0.15998  6.52308 17.59515  8.54849
C-CA1--0.15998  5.66772 15.32304  8.68037
C-CA2--0.07151  4.42099 21.31403  3.44844
H-HA1-0.10679  4.32409 20.09497  5.20007
C-CA2--0.07151  5.28899 20.28250  1.44378
H-HA1-0.10679  5.92183 18.24833  1.59624
C-CA1--0.15998  5.83551 13.81591  2.12018
C-CA1--0.15998  5.21212 12.66278  4.16817
C-CA2--0.07151  6.73002 17.59081  9.93225
H-HA1-0.10679  6.79394 18.48756  7.99460
C-CA2--0.07151  5.87701 15.33459 10.06279
H-HA1-0.10679  5.24177 14.42830  8.23578
C-CA3--0.11162  4.75672 21.39506  2.09644
H-HA2-0.09073  4.00662 22.18299  3.95352
H-HA2-0.09073  5.55878 20.34921  0.39417
C-CA2--0.07151  5.81000 12.59711  1.43545
H-HA1-0.10679  6.11576 14.70655  1.56916
C-CA2--0.07151  5.17969 11.45370  3.46729
H-HA1-0.10679  4.96184 12.64735  5.22445
C-CA3--0.11162  6.40734 16.46400 10.68839
H-HA2-0.09073  7.14739 18.46695 10.42236
H-HA2-0.09073  5.62438 14.45826 10.65107
H-HA3-0.09350  4.60839 22.32462  1.55420
C-CA3--0.11162  5.47634 11.42117  2.10542
H-HA2-0.09073  6.05327 12.56221  0.37775
H-HA2-0.09073  4.91984 10.53437  3.98350
H-HA3-0.09350  6.57386 16.46663 11.76157
H-HA3-0.09350  5.45433 10.48022  1.56902
Tv  6.88351 -0.06413  0.08551
Tv  0.11549 19.96855 -0.09243
Tv -0.08697  0.02243 11.56707

