# amber(Print,SoftOnly) 

./data/tphben/res082/tphben_iniff82.gjf nmol_natom 1_42

0 1
C-CP0-0.04231 -1.26660 -0.67183 -0.01561
C-CA0--0.16358 -0.05429 -1.39984 -0.00014
C-CA0--0.16358 -1.18121  0.73966 -0.00603
C-CP0-0.04231  1.21074 -0.76787  0.01535
H-HA0-0.09080 -0.09642 -2.48643 -0.00011
C-CP1-0.11652 -2.60196 -1.37376 -0.05631
C-CP0-0.04231  0.05525  1.42589 -0.00013
H-HA0-0.09080 -2.10073  1.31926 -0.03721
C-CA0--0.16358  1.23486  0.64600  0.00576
C-CP1-0.11652  2.48776 -1.57104  0.05628
C-CA1--0.15998 -2.76434 -2.58321 -0.77942
C-CA1--0.15998 -3.72756 -0.83551  0.61823
C-CP1-0.11652  0.11373  2.93411 -0.00004
H-HA0-0.09080  2.19649  1.15268  0.03701
C-CA1--0.15998  2.55593 -2.78939  0.77947
C-CA1--0.15998  3.65178 -1.12151 -0.61801
C-CA2--0.07151 -4.00843 -3.22233 -0.82380
H-HA1-0.10679 -1.93290 -3.02324 -1.32481
C-CA2--0.07151 -4.96378 -1.48948  0.56960
H-HA1-0.10679 -3.64610  0.08328  1.19393
C-CA1--0.15998 -0.86408  3.69928  0.68578
C-CA1--0.15998  1.14790  3.62134 -0.68573
C-CA2--0.07151  3.74685 -3.52282  0.82419
H-HA1-0.10679  1.69282 -3.16375  1.32470
C-CA2--0.07151  4.83370 -1.86914 -0.56904
H-HA1-0.10679  3.64177 -0.19920 -1.19375
C-CA3--0.11162 -5.10525 -2.67857 -0.15039
H-HA2-0.09073 -4.12253 -4.14487 -1.38827
H-HA2-0.09073 -5.81821 -1.06998  1.09543
C-CA2--0.07151 -0.80162  5.09727  0.68361
H-HA1-0.10679 -1.66678  3.21477  1.23637
C-CA2--0.07151  1.19396  5.01997 -0.68327
H-HA1-0.10679  1.91065  3.07620 -1.23641
C-CA3--0.11162  4.88261 -3.06556  0.15104
H-HA2-0.09073  3.78912 -4.45138  1.38874
H-HA2-0.09073  5.71815 -1.51701 -1.09467
H-HA3-0.09350 -6.06916 -3.18028 -0.18746
C-CA3--0.11162  0.22326  5.75664  0.00024
H-HA2-0.09073 -1.55359  5.67276  1.21837
H-HA2-0.09073  1.98828  5.53557 -1.21790
H-HA3-0.09350  5.80482 -3.64031  0.18839
H-HA3-0.09350  0.26542  6.84310  0.00037

