# am1

acanil nmol_natom 8_19

0 1
 C                 11.54932900    5.35808100    2.90041600
 C                 11.81269900    6.45086000    3.72566200
 C                 12.58135400    4.46943700    2.58151800
 C                 13.11004800    6.66997800    4.17600800
 H                 11.09867000    7.04641000    3.97300200
 N                 10.27343900    5.07528800    2.35284500
 C                 13.86894900    4.70260100    3.04042000
 H                 12.38236200    3.70720800    2.03861400
 C                 14.14012300    5.81691700    3.82522000
 H                 13.28562900    7.45655300    4.74380200
 C                  9.21800300    5.91711200    2.23695300
 H                 10.18369900    4.25593800    2.00128000
 H                 14.58688000    4.06678500    2.80085800
 H                 15.06289900    6.00138800    4.11456200
 C                  8.02014900    5.35714400    1.52293200
 O                  9.22580600    7.07356600    2.67018700
 H                  7.88748800    5.89089300    0.70313100
 H                  7.20077200    5.49760500    2.07828100
 H                  8.09233300    4.40950800    1.29659300
  C                 11.54932900    8.68792000    6.78941600
 C                 11.81269900    7.59514100    7.61466200
 C                 12.58135400    9.57656300    6.47051800
 C                 13.11004800    7.37602300    8.06500800
 H                 11.09867000    6.99959000    7.86200200
 N                 10.27343900    8.97071300    6.24184500
 C                 13.86894900    9.34339900    6.92942000
 H                 12.38236200   10.33879300    5.92761400
 C                 14.14012300    8.22908300    7.71422100
 H                 13.28562900    6.58944700    8.63280200
 C                  9.21800300    8.12888800    6.12595300
 H                 10.13574072    9.90066752    5.90092893
 H                 14.58688000    9.97921600    6.68985800
 H                 15.06289900    8.04461300    8.00356200
 C                  8.02014900    8.68885600    5.41193200
 O                  9.22580600    6.97243500    6.55918700
 H                  7.88748800    8.15510800    4.59213100
 H                  7.20077200    8.54839500    5.96728100
 H                  8.09233300    9.63649300    5.18559300
  C                  7.95967200   10.04008100    0.98858400
 C                  7.69630100   11.13286000    0.16333800
 C                  6.92764600    9.15143800    1.30748200
 C                  6.39895200   11.35197700   -0.28700800
 H                  8.41033100   11.72841100   -0.08400200
 N                  9.23556100    9.75728800    1.53615500
 C                  5.64005200    9.38460200    0.84858000
 H                  7.12663800    8.38920800    1.85038600
 C                  5.36887700   10.49891800    0.06378000
 H                  6.22337200   12.13855400   -0.85480200
 C                 10.29099800   10.59911200    1.65204700
 H                  9.32530200    8.93793900    1.88772100
 H                  4.92212100    8.74878600    1.08814200
 H                  4.44610100   10.68338800   -0.22556200
 C                 11.48885200   10.03914500    2.36606700
 O                 10.28319500   11.75556600    1.21881300
 H                 11.62151200   10.57289300    3.18586900
 H                 12.30822900   10.17960500    1.81071800
 H                 11.41666800    9.09150800    2.59240700
  C                  7.95967200    4.00591900    4.87758400
 C                  7.69630100    2.91314100    4.05233800
 C                  6.92764600    4.89456300    5.19648200
 C                  6.39895200    2.69402300    3.60199200
 H                  8.41033100    2.31759000    3.80499700
 N                  9.23556100    4.28871200    5.42515500
 C                  5.64005200    4.66139900    4.73758000
 H                  7.12663800    5.65679300    5.73938600
 C                  5.36887700    3.54708300    3.95278000
 H                  6.22337200    1.90744700    3.03419800
 C                 10.29099800    3.44688800    5.54104700
 H                  9.32530200    5.10806200    5.77672100
 H                  4.92212100    5.29721500    4.97714200
 H                  4.44610100    3.36261200    3.66343800
 C                 11.48885200    4.00685600    6.25506700
 O                 10.28319500    2.29043400    5.10781200
 H                 11.62151200    3.47310800    7.07486900
 H                 12.30822900    3.86639600    5.69971800
 H                 11.41666800    4.95449300    6.48140700
  C                 17.71417200   10.04008100    2.90041600
 C                 17.45080200   11.13286000    3.72566200
 C                 16.68214800    9.15143800    2.58151800
 C                 16.15345200   11.35197700    4.17600800
 H                 18.16483100   11.72841100    3.97300200
 N                 18.99006100    9.75728800    2.35284500
 C                 15.39455200    9.38460200    3.04042000
 H                 16.88113800    8.38920800    2.03861400
 C                 15.12337800   10.49891800    3.82522000
 H                 15.97787200   12.13855400    4.74380200
 C                 20.04549600   10.59911200    2.23695300
 H                 19.07980200    8.93793900    2.00128000
 H                 14.67662100    8.74878600    2.80085800
 H                 14.20060300   10.68338800    4.11456200
 C                 21.24335300   10.03914500    1.52293200
 O                 20.03769700   11.75556600    2.67018700
 H                 21.37601300   10.57289300    0.70313100
 H                 22.06272900   10.17960500    2.07828100
 H                 21.17116900    9.09150800    1.29659300
  C                 21.30382900    5.35808100    0.98858400
 C                 21.56720000    6.45086000    0.16333800
 C                 22.33585500    4.46943700    1.30748200
 C                 22.86454800    6.66997800   -0.28700800
 H                 20.85317000    7.04641000   -0.08400200
 N                 20.02794100    5.07528800    1.53615500
 C                 23.62344900    4.70260100    0.84858000
 H                 22.13686400    3.70720800    1.85038600
 C                 23.89462300    5.81691700    0.06378000
 H                 23.04013100    7.45655300   -0.85480200
 C                 18.97250400    5.91711200    1.65204700
 H                 19.89024368    4.14533361    1.87707182
 H                 24.34138100    4.06678500    1.08814200
 H                 24.81740000    6.00138800   -0.22556200
 C                 17.77465100    5.35714400    2.36606700
 O                 18.98030700    7.07356600    1.21881300
 H                 17.64198900    5.89089300    3.18586900
 H                 16.95527300    5.49760500    1.81071800
 H                 17.84683400    4.40950800    2.59240700
  C                 17.71417200    4.00591900    6.78941600
 C                 17.45080200    2.91314100    7.61466200
 C                 16.68214800    4.89456300    6.47051800
 C                 16.15345200    2.69402300    8.06500800
 H                 18.16483100    2.31759000    7.86200200
 N                 18.99006100    4.28871200    6.24184500
 C                 15.39455200    4.66139900    6.92942000
 H                 16.88113800    5.65679300    5.92761400
 C                 15.12337800    3.54708300    7.71422100
 H                 15.97787200    1.90744700    8.63280200
 C                 20.04549600    3.44688800    6.12595300
 H                 19.07980200    5.10806200    5.89027900
 H                 14.67662100    5.29721500    6.68985800
 H                 14.20060300    3.36261200    8.00356200
 C                 21.24335300    4.00685600    5.41193200
 O                 20.03769700    2.29043400    6.55918700
 H                 21.37601300    3.47310800    4.59213100
 H                 22.06272900    3.86639600    5.96728100
 H                 21.17116900    4.95449300    5.18559300
  C                 21.30382900    8.68792000    4.87758400
 C                 21.56720000    7.59514100    4.05233800
 C                 22.33585500    9.57656300    5.19648200
 C                 22.86454800    7.37602300    3.60199200
 H                 20.85317000    6.99959000    3.80499700
 N                 20.02794100    8.97071300    5.42515500
 C                 23.62344900    9.34339900    4.73758000
 H                 22.13686400   10.33879300    5.73938600
 C                 23.89462300    8.22908300    3.95278000
 H                 23.04013100    6.58944700    3.03419800
 C                 18.97250400    8.12888800    5.54104700
 H                 19.89024335    9.90066739    5.76607168
 H                 24.34138100    9.97921600    4.97714200
 H                 24.81740000    8.04461300    3.66343800
 C                 17.77465100    8.68885600    6.25506700
 O                 18.98030700    6.97243500    5.10781200
 H                 17.64198900    8.15510800    7.07486900
 H                 16.95527300    8.54839500    5.69971800
 H                 17.84683400    9.63649300    6.48140700
 Tv                19.50900000    0.00000000    0.00000000
 Tv                 0.00000000    9.36400000    0.00000000
 Tv                 0.00000000    0.00000000    7.77800000
 
