# amber(Print,SoftOnly) 

./data/bpheno/res086/bpheno_lat_iniff86.gjf nmol_natom 4_24

0 1
C-CA0--0.06446  1.87565  5.75332  9.64188
C-CA1--0.00004  1.31765  5.10586 10.75912
C-CA2--0.08258  2.65979  5.00313  8.74717
C-CA3--0.14725  1.54827  3.74373 10.98188
H-HA0-0.03700  0.68786  5.65187 11.45528
C-C-0.47863  1.58519  7.20414  9.34891
C-CA4--0.11051  2.89677  3.64409  8.97681
H-HA1-0.11977  3.09324  5.47576  7.86886
C-CA5--0.08036  2.34495  3.01352 10.09526
H-HA2-0.12416  1.10198  3.25114 11.84183
C-CA0--0.06446  1.48003  8.21217 10.46999
O-O--0.50008  1.44005  7.56145  8.19421
H-HA3-0.11064  3.50433  3.07533  8.28024
H-HA4-0.10437  2.52937  1.95648 10.26983
C-CA1--0.00004  2.10031  7.99586 11.71377
C-CA2--0.08258  0.79610  9.42483 10.26278
C-CA3--0.14725  2.00820  8.94810 12.73408
H-HA0-0.03700  2.67099  7.09179 11.89555
C-CA4--0.11051  0.70003 10.37454 11.28557
H-HA1-0.11977  0.32488  9.63052  9.30514
C-CA5--0.08036  1.30302 10.13434 12.52255
H-HA2-0.12416  2.49305  8.76914 13.69048
H-HA3-0.11064  0.15664 11.30032 11.11961
H-HA4-0.10437  1.22843 10.86997 13.31710
C-CA0--0.06446  5.83350  0.58425  8.36077
C-CA1--0.00004  6.37955 -0.06979  7.24159
C-CA2--0.08258  5.04736 -0.15688  9.26080
C-CA3--0.14725  6.13209 -1.42948  7.02069
H-HA0-0.03700  7.01133  0.46929  6.54177
C-C-0.47863  6.14022  2.03131  8.65341
C-CA4--0.11051  4.79708 -1.51386  9.03533
H-HA1-0.11977  4.62377  0.32130 10.14075
C-CA5--0.08036  5.33381 -2.15069  7.91324
H-HA2-0.12416  6.56642 -1.92774  6.15793
C-CA0--0.06446  6.23385  3.04458  7.53552
O-O--0.50008  6.31049  2.37990  9.80734
H-HA3-0.11064  4.19176 -2.07611  9.73867
H-HA4-0.10437  5.13687 -3.20579  7.74073
C-CA1--0.00004  5.61350  2.83070  6.29097
C-CA2--0.08258  6.91162  4.25998  7.74698
C-CA3--0.14725  5.70221  3.78763  5.27434
H-HA0-0.03700  5.04571  1.92528  6.10474
C-CA4--0.11051  7.00238  5.21527  6.72923
H-HA1-0.11977  7.38146  4.46393  8.70514
C-CA5--0.08036  6.40103  4.97705  5.49124
H-HA2-0.12416  5.21948  3.60982  4.31656
H-HA3-0.11064  7.54079  6.14328  6.89965
H-HA4-0.10437  6.47226  5.71717  4.70053
C-CA0--0.06446  1.96967  4.49316  3.71405
C-CA1--0.00004  2.50338  5.15761  4.83296
C-CA2--0.08258  1.19857  5.22771  2.79533
C-CA3--0.14725  2.26239  6.52152  5.03330
H-HA0-0.03700  3.12350  4.62396  5.54698
C-C-0.47863  2.27907  3.04258  3.44070
C-CA4--0.11051  0.95268  6.58885  3.00112
H-HA1-0.11977  0.78397  4.74156  1.91544
C-CA5--0.08036  1.48086  7.23680  4.12121
H-HA2-0.12416  2.69043  7.02738  5.89483
C-CA0--0.06446  2.37373  2.04426  4.57167
O-O--0.50008  2.45171  2.67853  2.29200
H-HA3-0.11064  0.35791  7.14534  2.28372
H-HA4-0.10437  1.29093  8.29586  4.27711
C-CA1--0.00004  1.73172  2.26339  5.80355
C-CA2--0.08258  3.07178  0.83657  4.38509
C-CA3--0.14725  1.81442  1.31784  6.83142
H-HA0-0.03700  1.15170  3.16438  5.96956
C-CA4--0.11051  3.15857 -0.10664  5.41466
H-HA1-0.11977  3.55793  0.62850  3.43623
C-CA5--0.08036  2.53275  0.13572  6.63975
H-HA2-0.12416  1.31244  1.49888  7.77849
H-HA3-0.11064  3.71151 -1.02921  5.26296
H-HA4-0.10437  2.59936 -0.59555  7.43955
C-CA0--0.06446  5.78969  9.63594  2.35411
C-CA1--0.00004  5.26455 10.29425  1.22746
C-CA2--0.08258  6.54374 10.37922  3.28026
C-CA3--0.14725  5.49581 11.66007  1.02815
H-HA0-0.03700  4.65791  9.75452  0.50652
C-C-0.47863  5.48848  8.18314  2.62823
C-CA4--0.11051  6.78083 11.74228  3.07543
H-HA1-0.11977  6.95222  9.89821  4.16562
C-CA5--0.08036  6.25984 12.38390  1.94835
H-HA2-0.12416  5.07446 12.16066  0.16030
C-CA0--0.06446  5.40967  7.17934  1.50038
O-O--0.50008  5.31046  7.82084  3.77676
H-HA3-0.11064  7.36502 12.30445  3.79745
H-HA4-0.10437  6.44301 13.44418  1.79220
C-CA1--0.00004  6.04920  7.40287  0.26782
C-CA2--0.08258  4.72785  5.96258  1.69052
C-CA3--0.14725  5.97697  6.45450 -0.75818
H-HA0-0.03700  6.61836  8.31013  0.09888
C-CA4--0.11051  4.65259  5.01598  0.66313
H-HA1-0.11977  4.24296  5.75065  2.63938
C-CA5--0.08036  5.27366  5.26412 -0.56312
H-HA2-0.12416  6.47585  6.63966 -1.70618
H-HA3-0.11064  4.11045  4.08727  0.81673
H-HA4-0.10437  5.21452  4.53121 -1.36168
Tv  7.74221  0.02947  0.15976
Tv -0.02565 10.34875 -0.07031
Tv -0.09514  0.04190 11.84653

