# amber(Print,SoftOnly) 

./data/acanil/res099/acanil_lat_optff99.gjf nmol_natom 8_19

0 1
C-CA0-0.50115 11.34546  5.30689  2.80695
C-CA1--0.33661 11.61992  6.44524  3.54909
C-CA1--0.33661 12.34148  4.37845  2.57179
C-CA2--0.02468 12.88187  6.63906  4.07895
H-HA0-0.18930 10.90749  7.25847  3.55455
N-N--0.81562 10.20616  5.25683  1.96233
C-CA2--0.02468 13.60301  4.56477  3.10982
H-HA0-0.18930 12.18733  3.61018  1.82643
C-CA3--0.17880 13.87160  5.70034  3.85220
H-HA1-0.09783 13.13609  7.59493  4.51897
C-C-0.86225  9.00440  5.94273  2.04298
H-HN-0.38524 10.20263  4.31200  1.64228
H-HA1-0.09783 14.41574  3.91819  2.80563
H-HA2-0.11288 14.89464  5.93436  4.11379
C-C3--0.48253  7.87745  5.37583  1.21447
O-O--0.63692  8.94560  7.07205  2.51050
H-HC-0.13356  7.67956  6.14527  0.46454
H-HC-0.13356  7.00601  5.45531  1.86792
H-HC-0.13356  8.14137  4.37428  0.86990
C-CA0-0.50115 11.32554  8.75015  6.61898
C-CA1--0.33661 11.61786  7.60098  7.33711
C-CA1--0.33661 12.31066  9.69125  6.39034
C-CA2--0.02468 12.88586  7.41134  7.85446
H-HA0-0.18930 10.91218  6.78203  7.33596
N-N--0.81562 10.17645  8.81048  5.78837
C-CA2--0.02468 13.57864  9.50709  6.91191
H-HA0-0.18930 12.14208 10.47129  5.66129
C-CA3--0.17880 13.86478  8.36314  7.63460
H-HA1-0.09783 13.15220  6.45154  8.27836
C-C-0.86225  8.98500  8.10612  5.85745
H-HN-0.38524 10.15528  9.76940  5.51457
H-HA1-0.09783 14.38170 10.16522  6.60836
H-HA2-0.11288 14.89230  8.13593  7.88473
C-C3--0.48253  7.83784  8.69694  5.07353
O-O--0.63692  8.94939  6.95484  6.27027
H-HC-0.13356  7.63964  7.96278  4.28871
H-HC-0.13356  6.97816  8.57271  5.73581
H-HC-0.13356  8.08151  9.71826  4.77705
C-CA0-0.50115  8.11929 10.05041  1.28430
C-CA1--0.33661  7.83133 11.17516  0.52891
C-CA1--0.33661  7.16841  9.06205  1.44756
C-CA2--0.02468  6.56131 11.35084  0.01087
H-HA0-0.18930  8.62250 11.86834  0.27781
N-N--0.81562  9.44736  9.76975  1.69104
C-CA2--0.02468  5.89953  9.23211  0.92312
H-HA0-0.18930  7.43585  8.12913  1.92017
C-CA3--0.17880  5.59134 10.38951  0.23131
H-HA1-0.09783  6.34246 12.21398 -0.60400
C-C-0.86225 10.47419 10.64262  2.01604
H-HN-0.38524  9.36576  8.90569  2.18269
H-HA1-0.09783  5.16388  8.44513  1.02390
H-HA2-0.11288  4.59892 10.52506 -0.17474
C-C3--0.48253 11.61789 10.03617  2.79258
O-O--0.63692 10.56821 11.74220  1.48695
H-HC-0.13356 11.84394 10.78970  3.55036
H-HC-0.13356 12.47607 10.11647  2.12150
H-HC-0.13356 11.33590  9.04577  3.15617
C-CA0-0.50115  8.16540  4.09976  4.97555
C-CA1--0.33661  7.86173  2.94686  4.26847
C-CA1--0.33661  7.18931  5.05329  5.19278
C-CA2--0.02468  6.59149  2.76466  3.75348
H-HA0-0.18930  8.55816  2.12059  4.28175
N-N--0.81562  9.31442  4.15136  5.80711
C-CA2--0.02468  5.92104  4.88029  4.66718
H-HA0-0.18930  7.36333  5.83730  5.91601
C-CA3--0.17880  5.62377  3.73136  3.95699
H-HA1-0.09783  6.31337  1.80243  3.34277
C-C-0.86225 10.50321  3.44166  5.73654
H-HN-0.38524  9.33869  5.10622  6.09642
H-HA1-0.09783  5.12496  5.55343  4.95754
H-HA2-0.11288  4.59482  3.51445  3.70339
C-C3--0.48253 11.65060  4.01722  6.53099
O-O--0.63692 10.53420  2.29682  5.30530
H-HC-0.13356 11.84558  3.27027  7.30420
H-HC-0.13356 12.51190  3.89947  5.86999
H-HC-0.13356 11.41026  5.03550  6.84323
C-CA0-0.50115 17.91430  9.94341  2.80067
C-CA1--0.33661 17.60817 11.09335  3.51167
C-CA1--0.33661 16.93975  8.98954  2.57814
C-CA2--0.02468 16.33691 11.27223  4.02511
H-HA0-0.18930 18.30350 11.92057  3.50270
N-N--0.81562 19.06448  9.89621  1.97050
C-CA2--0.02468 15.67021  9.15977  3.10153
H-HA0-0.18930 17.11602  8.20831  1.85226
C-CA3--0.17880 15.37046 10.30584  3.81514
H-HA1-0.09783 16.05697 12.23245  4.43927
C-C-0.86225 20.25112 10.60916  2.04351
H-HN-0.38524 19.09170  8.94176  1.68007
H-HA1-0.09783 14.87509  8.48759  2.80642
H-HA2-0.11288 14.34086 10.52146  4.06644
C-C3--0.48253 21.40171 10.03757  1.25077
O-O--0.63692 20.27797 11.75365  2.47587
H-HC-0.13356 21.59627 10.78579  0.47866
H-HC-0.13356 22.26126 10.15707  1.91373
H-HC-0.13356 21.16477  9.01896  0.93706
C-CA0-0.50115 21.09666  5.30277  1.15652
C-CA1--0.33661 21.38877  6.45419  0.44206
C-CA1--0.33661 22.08158  4.36041  1.38093
C-CA2--0.02468 22.65632  6.64472 -0.07627
H-HA0-0.18930 20.68340  7.27339  0.44673
N-N--0.81562 19.94832  5.23989  1.98794
C-CA2--0.02468 23.34896  4.54509  0.85805
H-HA0-0.18930 21.91330  3.57798  2.10743
C-CA3--0.17880 23.63483  5.69108  0.13828
H-HA1-0.09783 22.92268  7.60576 -0.49738
C-C-0.86225 18.75520  5.94173  1.92131
H-HN-0.38524 19.92903  4.28060  2.26057
H-HA1-0.09783 24.15176  3.88482  1.15772
H-HA2-0.11288 24.66210  5.91767 -0.11387
C-C3--0.48253 17.61130  5.34664  2.70681
O-O--0.63692 18.71557  7.09349  1.51008
H-HC-0.13356 17.41273  6.07921  3.49299
H-HC-0.13356 16.74990  5.46939  2.04652
H-HC-0.13356 17.85826  4.32548  3.00155
C-CA0-0.50115 17.88936  3.99236  6.49657
C-CA1--0.33661 17.60550  2.86855  7.25490
C-CA1--0.33661 16.93542  4.97757  6.33225
C-CA2--0.02468 16.33646  2.69025  7.77431
H-HA0-0.18930 18.39855  2.17751  7.50580
N-N--0.81562 19.21584  4.27507  6.08583
C-CA2--0.02468 15.66760  4.80482  6.85837
H-HA0-0.18930 17.19903  5.90960  5.85577
C-CA3--0.17880 15.36339  3.64788  7.55246
H-HA1-0.09783 16.12001  1.82696  8.38968
C-C-0.86225 20.24408  3.40374  5.76086
H-HN-0.38524 19.13103  5.13776  5.59238
H-HA1-0.09783 14.92885  5.58846  6.75491
H-HA2-0.11288 14.37106  3.50882  7.95736
C-C3--0.48253 21.38545  4.01055  4.98083
O-O--0.63692 20.34135  2.30571  6.29255
H-HC-0.13356 21.61224  3.25572  4.22454
H-HC-0.13356 22.24488  3.93363  5.65066
H-HC-0.13356 21.10082  4.99942  4.61519
C-CA0-0.50115 21.10042  8.74407  4.97367
C-CA1--0.33661 21.38072  7.60520  4.23454
C-CA1--0.33661 22.09226  9.67688  5.20893
C-CA2--0.02468 22.64427  7.41556  3.70677
H-HA0-0.18930 20.67150  6.78914  4.22976
N-N--0.81562 19.95912  8.79220  5.81547
C-CA2--0.02468 23.35531  9.49498  4.67304
H-HA0-0.18930 21.93356 10.44587  5.95258
C-CA3--0.17880 23.62964  8.35926  3.93276
H-HA1-0.09783 22.90302  6.45986  3.26886
C-C-0.86225 18.75946  8.10313  5.73280
H-HN-0.38524 19.95197  9.73776  6.13336
H-HA1-0.09783 24.16474 10.14580  4.97704
H-HA2-0.11288 24.65398  8.12962  3.67226
C-C3--0.48253 17.62894  8.66989  6.55634
O-O--0.63692 18.70482  6.97243  5.26814
H-HC-0.13356 17.43123  7.90238  7.30829
H-HC-0.13356 16.75956  8.58620  5.90065
H-HC-0.13356 17.88936  9.67333  6.89818
Tv 19.54766  0.02003  0.00173
Tv -0.01575  9.30659  0.01239
Tv -0.00179  0.02609  7.60374

