# amber(Print,SoftOnly) 

./data/acanil/res099/acanil_iniff99.gjf nmol_natom 1_19

0 1
C-CA0-0.50115 -0.28820 -0.27304  0.10297
C-CA1--0.33661 -0.75259  1.04706  0.18652
C-CA1--0.33661 -1.20487 -1.32232 -0.02854
C-CA2--0.02468 -2.12429  1.31726  0.11231
H-HA0-0.18930 -0.05152  1.86801  0.31056
N-N--0.81562  1.09680 -0.59218  0.20795
C-CA2--0.02468 -2.57742 -1.05494 -0.10200
H-HA0-0.18930 -0.85496 -2.34985 -0.08077
C-CA3--0.17880 -3.03583  0.26546 -0.03341
H-HA1-0.09783 -2.48188  2.34305  0.17126
C-C-0.86225  2.14453  0.06328 -0.32325
H-HN-0.38524  1.29795 -1.44489  0.69684
H-HA1-0.09783 -3.28764 -1.87188 -0.21067
H-HA2-0.11288 -4.10155  0.47432 -0.08989
C-C3--0.48253  3.47700 -0.57192 -0.02633
O-O--0.63692  2.03653  1.07013 -0.98952
H-HC-0.13356  3.64876 -0.60476  1.05125
H-HC-0.13356  4.28299  0.00252 -0.48801
H-HC-0.13356  3.50799 -1.58958 -0.42014

