# am1

tphben01 nmol_natom 4_42

0 1
 C                  2.13612700    2.15240900   -1.37122400
 C                  1.90250000    2.16624400    0.00000000
 C                  2.13917100    3.36993200   -2.05345900
 C                  1.66811200    3.35807300    0.69011500
 H                  1.90326100    1.27089000    0.51674200
 C                  2.41084800    0.87756600   -2.08498100
 C                  1.90934900    4.57164400   -1.39936900
 H                  2.31724500    3.38376800   -3.07230900
 C                  1.67496100    4.55780900   -0.02139000
 C                  1.39110800    3.34028500    2.14915200
 C                  3.11781700   -0.15416700   -1.47592400
 C                  1.97403400    0.68782200   -3.40329300
 C                  1.92076400    5.85636900   -2.15590800
 H                  1.50449700    5.44525700    0.47846500
 C                  0.61564900    2.34412900    2.71430400
 C                  1.91087100    4.32853500    2.99125100
 C                  3.39634300   -1.32425500   -2.16603900
 H                  3.43972000   -0.04743600   -0.49873000
 C                  2.26093100   -0.48621900   -4.08102500
 H                  1.43144100    1.42703300   -3.88738700
 C                  1.42307000    5.91764100   -3.44832600
 C                  2.42302400    7.02052800   -1.58062400
 C                  0.34168900    2.33029300    4.07089300
 H                  0.23362700    1.59305900    2.11087500
 C                  1.64528200    4.29691100    4.35346900
 H                  2.49836300    5.09146400    2.60285000
 C                  2.97094400   -1.49225800   -3.46521200
 H                  3.93056500   -2.08520700   -1.70671300
 H                  1.94207200   -0.61469100   -5.05709400
 C                  1.42307000    7.11342300   -4.15082500
 H                  1.04637500    5.06379300   -3.89414200
 C                  2.42302400    8.20642800   -2.28987800
 H                  2.80048000    7.00471600   -0.61693900
 C                  0.85840800    3.31063700    4.89160100
 H                 -0.25493500    1.58317600    4.47505500
 H                  2.04100200    5.01833300    4.97941400
 H                  3.18098000   -2.36587100   -3.97745100
 C                  1.92609100    8.25584000   -3.56315700
 H                  1.04257000    7.15097700   -5.11451000
 H                  2.80124100    9.07015800   -1.86319900
 H                  0.65674300    3.30668400    5.90482100
 H                  1.93141800    9.15119500   -4.07877400
  C                  5.94112700    7.73009100   -1.37122400
 C                  5.70750000    7.71625600    0.00000000
 C                  5.94417100    6.51256800   -2.05345900
 C                  5.47311200    6.52442600    0.69011500
 H                  5.70826100    8.61161000    0.51674200
 C                  6.21584800    9.00493300   -2.08498100
 C                  5.71434900    5.31085500   -1.39936900
 H                  6.12224500    6.49873200   -3.07230900
 C                  5.47996100    5.32469100   -0.02139000
 C                  5.19610800    6.54221500    2.14915200
 C                  6.92281700   10.03666600   -1.47592400
 C                  5.77903400    9.19467800   -3.40329300
 C                  5.72576400    4.02613100   -2.15590800
 H                  5.30949700    4.43724300    0.47846500
 C                  4.42064900    7.53837100    2.71430400
 C                  5.71587100    5.55396500    2.99125100
 C                  7.20134400   11.20675600   -2.16603900
 H                  7.24472000    9.92993500   -0.49873000
 C                  6.06593100   10.36871900   -4.08102500
 H                  5.23644100    8.45546600   -3.88738700
 C                  5.22807000    3.96485900   -3.44832600
 C                  6.22802400    2.86197200   -1.58062400
 C                  4.14668900    7.55220600    4.07089300
 H                  4.03862700    8.28944100    2.11087500
 C                  5.45028200    5.58558800    4.35346900
 H                  6.30336300    4.79103600    2.60285000
 C                  6.77594400   11.37475800   -3.46521200
 H                  7.73556500   11.96770700   -1.70671300
 H                  5.74707200   10.49719000   -5.05709400
 C                  5.22807000    2.76907600   -4.15082500
 H                  4.85137500    4.81870700   -3.89414200
 C                  6.22802400    1.67607200   -2.28987800
 H                  6.60548000    2.87778400   -0.61693900
 C                  4.66340800    6.57186200    4.89160100
 H                  3.55006500    8.29932300    4.47505500
 H                  5.84600300    4.86416700    4.97941400
 H                  6.98598000   12.24837000   -3.97745100
 C                  5.73109100    1.62666000   -3.56315700
 H                  4.84757000    2.73152300   -5.11451000
 H                  6.60624100    0.81234100   -1.86319900
 H                  4.46174300    6.57581600    5.90482100
 H                  5.73641800    0.73130500   -4.07877400
 C                  1.66887300   12.03490800    4.25777600
 C                  1.90250000   12.04874400    5.62900000
 C                  1.66582900   13.25243200    3.57554100
 C                  2.13688800   13.24057300    6.31911500
 H                  1.90173900   11.15338900    6.14574200
 C                  1.39415200   10.76006500    3.54401900
 C                  1.89565100   14.45414400    4.22963000
 H                  1.48775500   13.26626900    2.55669200
 C                  2.13003900   14.44030900    5.60761000
 C                  2.41389200   13.22278500    7.77815200
 C                  0.68718300    9.72833300    4.15307600
 C                  1.83096600   10.57032100    2.22570700
 C                  1.88423600   15.73886900    3.47309300
 H                  2.30050300   15.32775700    6.10746500
 C                  3.18935100   12.22662900    8.34330500
 C                  1.89412900   14.21103400    8.62025100
 C                  0.40865700    8.55824500    3.46296100
 H                  0.36528000    9.83506400    5.13027100
 C                  1.54406900    9.39628000    1.54797500
 H                  2.37355900   11.30953300    1.74161300
 C                  2.38193000   15.80014000    2.18067500
 C                  1.38197600   16.90302700    4.04837700
 C                  3.46331100   12.21279300    9.69989400
 H                  3.57137300   11.47555900    7.73987500
 C                  2.15971800   14.17941100    9.98247000
 H                  1.30663700   14.97396400    8.23185000
 C                  0.83405600    8.39024200    2.16378800
 H                 -0.12556500    7.79729300    3.92228700
 H                  1.86292800    9.26780800    0.57190600
 C                  2.38193000   16.99592200    1.47817600
 H                  2.75862500   14.94629200    1.73485800
 C                  1.38197600   18.08892800    3.33912300
 H                  1.00452000   16.88721700    5.01206200
 C                  2.94659200   13.19313700   10.52060100
 H                  4.05993500   11.46567600   10.10405500
 H                  1.76399800   14.90083300   10.60841400
 H                  0.62402000    7.51662900    1.65154900
 C                  1.87890900   18.13834000    2.06584300
 H                  2.76243000   17.03347600    0.51449100
 H                  1.00375900   18.95265800    3.76580100
 H                  3.14825700   13.18918400   11.53382100
 H                  1.87358200   19.03369500    1.55022700
 C                  5.47387300   17.61259100    4.25777600
 C                  5.70750000   17.59875500    5.62900000
 C                  5.47082900   16.39506700    3.57554100
 C                  5.94188800   16.40692500    6.31911500
 H                  5.70673900   18.49411000    6.14574200
 C                  5.19915200   18.88743400    3.54401900
 C                  5.70065100   15.19335600    4.22963000
 H                  5.29275500   16.38123100    2.55669200
 C                  5.93503900   15.20719100    5.60761000
 C                  6.21889200   16.42471300    7.77815200
 C                  4.49218300   19.91916700    4.15307600
 C                  5.63596600   19.07717700    2.22570700
 C                  5.68923600   13.90863000    3.47309300
 H                  6.10550300   14.31974200    6.10746500
 C                  6.99435100   17.42087000    8.34330500
 C                  5.69912900   15.43646500    8.62025100
 C                  4.21365700   21.08925400    3.46296100
 H                  4.17028000   19.81243500    5.13027100
 C                  5.34906900   20.25121900    1.54797500
 H                  6.17855900   18.33796700    1.74161300
 C                  6.18693000   13.84735900    2.18067500
 C                  5.18697600   12.74447200    4.04837700
 C                  7.26831100   17.43470600    9.69989400
 H                  7.37637300   18.17194000    7.73987500
 C                  5.96471800   15.46808800    9.98247000
 H                  5.11163700   14.67353500    8.23185000
 C                  4.63905600   21.25725700    2.16378800
 H                  3.67943500   21.85020600    3.92228700
 H                  5.66792800   20.37969000    0.57190600
 C                  6.18693000   12.65157600    1.47817600
 H                  6.56362500   14.70120700    1.73485800
 C                  5.18697600   11.55857200    3.33912300
 H                  4.80952000   12.76028300    5.01206200
 C                  6.75159200   16.45436100   10.52060100
 H                  7.86493500   18.18182400   10.10405500
 H                  5.56899800   14.74666600   10.60841400
 H                  4.42902000   22.13087100    1.65154900
 C                  5.68390900   11.50915900    2.06584300
 H                  6.56743000   12.61402300    0.51449100
 H                  4.80875900   10.69484100    3.76580100
 H                  6.95325700   16.45831500   11.53382100
 H                  5.67858200   10.61380500    1.55022700
  Tv                 7.61000000    0.00000000    0.00000000
 Tv                 0.00000000   19.76500000    0.00000000
 Tv                 0.00000000    0.00000000   11.25800000
