%nprocshared=32
%mem=120GB
%chk=tphben.chk
#p opt freq wb97xd/6-311++g(d,p) scf=maxcycle=512

TPHBEN01_zmat.gjf nmol_natom 1_42

0 1
 C                 -1.23980300   -0.65333000   -0.04186700
 C                 -0.05353100   -1.38455600   -0.00111200
 C                 -1.17237100    0.73939300   -0.04181200
 C                  1.18564100   -0.74702500    0.04001500
 H                 -0.09543400   -2.46863000   -0.00122900
 C                 -2.55168300   -1.34586900   -0.10194600
 C                  0.05411500    1.40146500   -0.00079600
 H                 -2.08732900    1.31719900   -0.11896000
 C                  1.22587000    0.64671900    0.04014900
 C                  2.43997900   -1.53894500    0.10111200
 C                 -2.73805500   -2.45342400   -0.93247400
 C                 -3.62690200   -0.90410000    0.67264100
 C                  0.11157800    2.88485100   -0.00041000
 H                  2.18266000    1.15218900    0.11771100
 C                  2.53928400   -2.65726200    0.93219900
 C                  3.54692500   -1.18211000   -0.67255800
 C                 -3.96536300   -3.10130900   -0.98700700
 H                 -1.91986400   -2.79583300   -1.55700000
 C                 -4.85459000   -1.55116900    0.61863400
 H                 -3.49242200   -0.05835500    1.33858500
 C                 -0.76698600    3.63322300    0.78648000
 C                  1.04565800    3.56334400   -0.78671800
 C                  3.71260300   -3.39833900    0.98807700
 H                  1.69653100   -2.93499000    1.55617500
 C                  4.72071700   -1.92243600   -0.61720200
 H                  3.47907700   -0.32862400   -1.33875900
 C                 -5.02819000   -2.65254400   -0.21155300
 H                 -4.09397900   -3.95458100   -1.64366600
 H                 -5.67584900   -1.19872200    1.23275800
 C                 -0.71360000    5.02102000    0.78735900
 H                 -1.48387600    3.12114200    1.41942500
 C                  1.10033300    4.95108600   -0.78635700
 H                  1.72064700    2.99757000   -1.42002700
 C                  4.80770500   -3.03366300    0.21344300
 H                  3.77404700   -4.25877400    1.64510600
 H                  5.56738600   -1.63489800   -1.23064900
 H                 -5.98633800   -3.15797700   -0.25418200
 C                  0.22059900    5.68508400    0.00083800
 H                 -1.39850700    5.58524500    1.41055600
 H                  1.82710800    5.46089300   -1.40902800
 H                  5.72374300   -3.61184800    0.25702600
 H                  0.26281500    6.76837600    0.00135600

