# amber(Print,SoftOnly) 

./data/naphol/res082/naphol_optff82.gjf nmol_natom 1_19

0 1
C-CA0--0.00255  0.02541  0.46343  0.00002
C-CA1-0.23875  0.39224 -0.92308 -0.00009
C-CA2-0.29089 -1.34477  0.80794  0.00100
C-CA3--0.35656 -0.61345 -1.89673 -0.00009
C-CA4--0.29279  1.75208 -1.25297 -0.00005
C-CA5--0.08106  1.06900  1.40558 -0.00016
C-CA6--0.33265 -2.30437 -0.20227  0.00026
O-OH--0.62276 -1.76670  2.08859  0.00058
C-CA7--0.02117 -1.95184 -1.54189 -0.00007
H-HA0-0.16132 -0.34815 -2.94815 -0.00007
C-CA8--0.00488  2.75062 -0.29415 -0.00004
H-HA1-0.14803  2.04910 -2.29557  0.00007
C-CA9--0.17201  2.40815  1.04245 -0.00014
H-HA2-0.14827  0.83371  2.46513 -0.00005
H-HA3-0.14273 -3.35750  0.05637  0.00006
H-HO-0.44535 -2.72413  2.07403 -0.00140
H-HA4-0.09969 -2.72074 -2.30702 -0.00015
H-HA5-0.08659  3.79266 -0.59192  0.00007
H-HA6-0.12480  3.18432  1.79953 -0.00008

