# amber(Print,SoftOnly) 

./data/naphol/res082/naphol_lat_optff82.gjf nmol_natom 4_19

0 1
C-CA0--0.00255  2.31399 -0.00665  3.30014
C-CA1-0.23875  0.99688 -0.07947  2.73956
C-CA2-0.29089  3.28038  0.83066  2.69842
C-CA3--0.35656  0.68327  0.71602  1.63478
C-CA4--0.29279  0.06358 -0.93406  3.33402
C-CA5--0.08106  2.57319 -0.79503  4.43479
C-CA6--0.33265  2.88058  1.65148  1.64533
O-OH--0.62276  4.38687  1.19856  3.37292
C-CA7--0.02117  1.61247  1.58545  1.09543
H-HA0-0.16132 -0.31619  0.69256  1.22033
C-CA8--0.00488  0.36597 -1.70706  4.44116
H-HA1-0.14803 -0.93074 -1.01669  2.91036
C-CA9--0.17201  1.62578 -1.63606  4.99697
H-HA2-0.14827  3.56483 -0.79133  4.87343
H-HA3-0.14273  3.55390  2.41824  1.28233
H-HO-0.44535  4.57032  2.11660  3.14537
H-HA4-0.09969  1.33526  2.24976  0.28524
H-HA5-0.08659 -0.37212 -2.38417  4.84942
H-HA6-0.12480  1.87656 -2.25744  5.84800
C-CA0--0.00255  7.84407  2.37393  2.62032
C-CA1-0.23875  9.16297  2.30369  3.17697
C-CA2-0.29089  6.87838  3.21058  3.22414
C-CA3--0.35656  9.47878  3.10056  4.28012
C-CA4--0.29279 10.09559  1.44955  2.58097
C-CA5--0.08106  7.58241  1.58338  1.48770
C-CA6--0.33265  7.27967  4.03158  4.27658
O-OH--0.62276  5.77079  3.57861  2.55149
C-CA7--0.02117  8.54950  3.96781  4.82278
H-HA0-0.16132 10.48008  3.08065  4.69021
C-CA8--0.00488  9.79042  0.67328  1.47702
H-HA1-0.14803 11.09129  1.36892  3.00173
C-CA9--0.17201  8.52876  0.74149  0.92498
H-HA2-0.14827  6.58951  1.58528  1.05186
H-HA3-0.14273  6.60660  4.79806  4.64069
H-HO-0.44535  5.58793  4.49660  2.77957
H-HA4-0.09969  8.82885  4.63433  5.63054
H-HA5-0.08659 10.52759 -0.00525  1.06976
H-HA6-0.12480  8.27534  0.11635  0.07751
C-CA0--0.00255  4.80434  0.02342  8.51786
C-CA1-0.23875  6.12250  0.09492  9.07614
C-CA2-0.29089  3.83840 -0.81365  9.12068
C-CA3--0.35656  6.43749 -0.70173 10.17971
C-CA4--0.29279  7.05530  0.94943  8.48070
C-CA5--0.08106  4.54367  0.81282  7.38428
C-CA6--0.33265  4.23953 -1.63573 10.17228
O-OH--0.62276  2.73030 -1.17998  8.44794
C-CA7--0.02117  5.50869 -1.57107 10.71992
H-HA0-0.16132  7.43766 -0.67934 10.59245
C-CA8--0.00488  6.75155  1.72328  7.37451
H-HA1-0.14803  8.05020  1.03172  8.90309
C-CA9--0.17201  5.49071  1.65347  6.82089
H-HA2-0.14827  3.55113  0.81044  6.94766
H-HA3-0.14273  3.56637 -2.40244 10.53570
H-HO-0.44535  2.54619 -2.09800  8.67502
H-HA4-0.09969  5.78701 -2.23648 11.52882
H-HA5-0.08659  7.48918  2.40060  6.96570
H-HA6-0.12480  5.23869  2.27596  5.97105
C-CA0--0.00255 -0.72495  2.40734  9.19618
C-CA1-0.23875 -2.04282  2.47910  8.63731
C-CA2-0.29089  0.24119  1.57075  8.59308
C-CA3--0.35656 -2.35751  1.68317  7.53316
C-CA4--0.29279 -2.97573  3.33356  9.23234
C-CA5--0.08106 -0.46473  3.19636 10.33022
C-CA6--0.33265 -0.15925  0.75012  7.54001
O-OH--0.62276  1.34851  1.20307  9.26634
C-CA7--0.02117 -1.42821  0.81508  6.99187
H-HA0-0.16132 -3.35799  1.70465  7.12108
C-CA8--0.00488 -2.67193  4.10836 10.33771
H-HA1-0.14803 -3.97068  3.41518  8.81004
C-CA9--0.17201 -1.41144  4.03833 10.89215
H-HA2-0.14827  0.52715  3.19269 10.76831
H-HA3-0.14273  0.51374 -0.01680  7.17675
H-HO-0.44535  1.53232  0.28532  9.03800
H-HA4-0.09969 -1.70682  0.14920  6.18333
H-HA5-0.08659 -3.40948  4.78658 10.74474
H-HA6-0.12480 -1.15937  4.66155 11.74143
Tv 13.23418  0.02232 -0.03019
Tv  0.00079  4.76456  0.00082
Tv -6.05915 -0.01499 11.78079

