# amber(Print,SoftOnly) 

./data/tphben/res095/tphben_lat_optff95.gjf nmol_natom 4_42

0 1
C-CP0-0.04231  2.19510  2.17878 -1.39793
C-CA0--0.16358  1.95574  2.21779 -0.02640
C-CA0--0.16358  2.21032  3.40963 -2.05063
C-CP0-0.04231  1.73922  3.39103  0.69372
H-HA0-0.09080  1.93695  1.28346  0.51040
C-CP1-0.11652  2.42121  0.89891 -2.12372
C-CP0-0.04231  2.00471  4.62999 -1.40945
H-HA0-0.09080  2.39561  3.41881 -3.11513
C-CA0--0.16358  1.77249  4.57562 -0.03727
C-CP1-0.11652  1.48787  3.37889  2.15889
C-CA1--0.15998  2.95716 -0.23551 -1.49966
C-CA1--0.15998  2.11360  0.74478 -3.48195
C-CP1-0.11652  2.03290  5.91830 -2.14816
H-HA0-0.09080  1.60673  5.50427  0.48852
C-CA1--0.15998  0.89703  2.28770  2.80902
C-CA1--0.15998  1.82762  4.45709  2.98574
C-CA2--0.07151  3.17694 -1.44333 -2.16662
H-HA1-0.10679  3.22631 -0.20796 -0.45529
C-CA2--0.07151  2.31935 -0.44516 -4.18323
H-HA1-0.10679  1.69521  1.56607 -4.04220
C-CA1--0.15998  1.68938  6.01104 -3.50196
C-CA1--0.15998  2.40423  7.12307 -1.53942
C-CA2--0.07151  0.65414  2.25584  4.18423
H-HA1-0.10679  0.60238  1.41376  2.24914
C-CA2--0.07151  1.60135  4.46257  4.36376
H-HA1-0.10679  2.29019  5.34024  2.57091
C-CA3--0.11162  2.85599 -1.54902 -3.52033
H-HA2-0.09073  3.59697 -2.28822 -1.64045
H-HA2-0.09073  2.06719 -0.50924 -5.23099
C-CA2--0.07151  1.70934  7.21083 -4.21562
H-HA1-0.10679  1.38745  5.13116 -4.04561
C-CA2--0.07151  2.43891  8.34220 -2.21907
H-HA1-0.10679  2.68645  7.14366 -0.49767
C-CA3--0.11162  1.01023  3.35252  4.96880
H-HA2-0.09073  0.19032  1.39096  4.63587
H-HA2-0.09073  1.88321  5.32040  4.95523
H-HA3-0.09350  3.02424 -2.47447 -4.04962
C-CA3--0.11162  2.09583  8.38469 -3.57014
H-HA2-0.09073  1.43052  7.22971 -5.25863
H-HA2-0.09073  2.73673  9.24367 -1.70493
H-HA3-0.09350  0.82258  3.34363  6.03152
H-HA3-0.09350  2.11865  9.31746 -4.10692
C-CP0-0.04231  5.84774  7.72769 -1.39075
C-CA0--0.16358  5.61114  7.69133 -0.01868
C-CA0--0.16358  5.85605  6.49534 -2.04094
C-CP0-0.04231  5.39064  6.52113  0.70523
H-HA0-0.09080  5.59770  8.62625  0.51560
C-CP1-0.11652  6.07753  9.00616 -2.11896
C-CP0-0.04231  5.64637  5.27690 -1.39664
H-HA0-0.09080  6.03892  6.48369 -3.10582
C-CA0--0.16358  5.41715  5.33543 -0.02408
C-CP1-0.11652  5.14150  6.53627  2.17143
C-CA1--0.15998  6.62380 10.13780 -1.49887
C-CA1--0.15998  5.76320  9.16194 -3.47552
C-CP1-0.11652  5.66674  3.98583 -2.13122
H-HA0-0.09080  5.24809  4.40852  0.50370
C-CA1--0.15998  4.57096  7.63681  2.82408
C-CA1--0.15998  5.46251  5.45136  2.99713
C-CA2--0.07151  6.84721 11.34413 -2.16755
H-HA1-0.10679  6.89869 10.10897 -0.45621
C-CA2--0.07151  5.97196 10.35062 -4.17870
H-HA1-0.10679  5.33676  8.34291 -4.03274
C-CA1--0.15998  5.32732  3.89125 -3.48587
C-CA1--0.15998  6.02605  2.77979 -1.51721
C-CA2--0.07151  4.33013  7.67136  4.19965
H-HA1-0.10679  4.29106  8.51664  2.26619
C-CA2--0.07151  5.23740  5.44801  4.37531
H-HA1-0.10679  5.90855  4.56035  2.58148
C-CA3--0.11162  6.51891 11.45157 -3.51931
H-HA2-0.09073  7.27585 12.18653 -1.64423
H-HA2-0.09073  5.71345 10.41658 -5.22498
C-CA2--0.07151  5.34012  2.68880 -4.19534
H-HA1-0.10679  5.03460  4.77170 -4.03371
C-CA2--0.07151  6.05294  1.55796 -2.19243
H-HA1-0.10679  6.30451  2.75992 -0.47443
C-CA3--0.11162  4.66665  6.56732  4.98233
H-HA2-0.09073  3.88323  8.54416  4.65308
H-HA2-0.09073  5.50457  4.58460  4.96546
H-HA3-0.09350  6.68907 12.37623 -4.04952
C-CA3--0.11162  5.71406  1.51371 -3.54445
H-HA2-0.09073  5.06584  2.66908 -5.23950
H-HA2-0.09073  6.34162  0.65571 -1.67429
H-HA3-0.09350  4.48070  6.57794  6.04532
H-HA3-0.09350  5.73160  0.57875 -4.07783
C-CP0-0.04231  1.76400 12.03638  4.23021
C-CA0--0.16358  1.99525 12.07372  5.60308
C-CA0--0.16358  1.75746 13.26782  3.57804
C-CP0-0.04231  2.21234 13.24521  6.32594
H-HA0-0.09080  2.00717 11.13865  6.13836
C-CP1-0.11652  1.53833 10.75687  3.50345
C-CP0-0.04231  1.96413 14.48725  4.22139
H-HA0-0.09080  1.57874 13.27783  2.51243
C-CA0--0.16358  2.18809 14.43007  5.59489
C-CP1-0.11652  2.45602 13.23193  7.79301
C-CA1--0.15998  0.99065  9.62549  4.12302
C-CA1--0.15998  1.85902 10.60000  2.14866
C-CP1-0.11652  1.94620 15.77778  3.48506
H-HA0-0.09080  2.35479 15.35768  6.12210
C-CA1--0.15998  3.01946 12.13024  8.44985
C-CA1--0.15998  2.13675 14.31974  8.61548
C-CA2--0.07151  0.77181  8.41808  3.45490
H-HA1-0.10679  0.71122  9.65521  5.16459
C-CA2--0.07151  1.65492  9.41030  1.44645
H-HA1-0.10679  2.28715 11.41876  1.59215
C-CA1--0.15998  2.28678 15.87064  2.13051
C-CA1--0.15998  1.58815 16.98517  4.09727
C-CA2--0.07151  3.25514 12.09720  9.82627
H-HA1-0.10679  3.29766 11.24815  7.89478
C-CA2--0.07151  2.35701 14.32474  9.99437
H-HA1-0.10679  1.69603 15.21191  8.19666
C-CA3--0.11162  1.10611  8.30965  2.10471
H-HA2-0.09073  0.34192  7.57570  3.97720
H-HA2-0.09073  1.91780  9.34388  0.40147
C-CA2--0.07151  2.27623 17.07239  1.41967
H-HA1-0.10679  2.57865 14.98931  1.58373
C-CA2--0.07151  1.56346 18.20634  3.42069
H-HA1-0.10679  1.30888 17.00676  5.13975
C-CA3--0.11162  2.92062 13.20413 10.60560
H-HA2-0.09073  3.69670 11.22335 10.28283
H-HA2-0.09073  2.09170 15.19057 10.58171
H-HA3-0.09350  0.93815  7.38481  1.57449
C-CA3--0.11162  1.90334 18.24869  2.06888
H-HA2-0.09073  2.55129 17.09075  0.37567
H-HA2-0.09073  1.27529 19.10951  3.93753
H-HA3-0.09350  3.10278 13.19464 11.66924
H-HA3-0.09350  1.88690 19.18303  1.53425
C-CP0-0.04231  5.41782 17.58635  4.22108
C-CA0--0.16358  5.65152 17.54871  5.59373
C-CA0--0.16358  5.40461 16.35490  3.56969
C-CP0-0.04231  5.86455 16.37605  6.31602
H-HA0-0.09080  5.66878 18.48357  6.12946
C-CP1-0.11652  5.19597 18.86551  3.49269
C-CP0-0.04231  5.60708 15.13544  4.21356
H-HA0-0.09080  5.22382 16.34452  2.50438
C-CA0--0.16358  5.83378 15.19083  5.58635
C-CP1-0.11652  6.11052 16.38825  7.78199
C-CA1--0.15998  4.65761 20.00091  4.11275
C-CA1--0.15998  5.51075 19.01795  2.13585
C-CP1-0.11652  5.58185 13.84633  3.47731
H-HA0-0.09080  5.99721 14.26236  6.11359
C-CA1--0.15998  6.69675 17.48040  8.43442
C-CA1--0.15998  5.77028 15.30896  8.60730
C-CA2--0.07151  4.44225 21.20819  3.44338
H-HA1-0.10679  4.38313 19.97456  5.15578
C-CA2--0.07151  5.30961 20.20736  1.43228
H-HA1-0.10679  5.93156 18.19581  1.57859
C-CA1--0.15998  5.93075 13.75203  2.12517
C-CA1--0.15998  5.20834 12.64250  4.08684
C-CA2--0.07151  6.93493 17.51222  9.81044
H-HA1-0.10679  6.99147 18.35506  7.87573
C-CA2--0.07151  5.99198 15.30334  9.98600
H-HA1-0.10679  5.31112 14.42489  8.19070
C-CA3--0.11162  4.77070 21.31240  2.09134
H-HA2-0.09073  4.02040 22.05402  3.96653
H-HA2-0.09073  5.56727 20.27024  0.38575
C-CA2--0.07151  5.91359 12.55137  1.41353
H-HA1-0.10679  6.23465 14.63113  1.58124
C-CA2--0.07151  5.17655 11.42249  3.40908
H-HA1-0.10679  4.92208 12.62319  5.12753
C-CA3--0.11162  6.57891 16.41433 10.59337
H-HA2-0.09073  7.39575 18.37779 10.26376
H-HA2-0.09073  5.71051 14.44435 10.57598
H-HA3-0.09350  4.60645 22.23764  1.56041
C-CA3--0.11162  5.52409 11.37875  2.05931
H-HA2-0.09073  6.19519 12.53141  0.37140
H-HA2-0.09073  4.87628 10.52172  3.92304
H-HA3-0.09350  6.76368 16.42284 11.65657
H-HA3-0.09350  5.50053 10.44626  1.52331
Tv  7.27418  0.06465  0.02642
Tv  0.04152 19.72485 -0.04154
Tv -0.02667  0.00389 11.31283

