# amber(Print,SoftOnly) 

./data/naphol/res090/naphol_lat_optff90.gjf nmol_natom 4_19

0 1
C-CA0--0.01205  2.24063  0.06586  3.40501
C-CA1-0.23885  0.94897 -0.03466  2.83653
C-CA2-0.29435  3.19143  0.92032  2.80874
C-CA3--0.35342  0.61566  0.73589  1.71486
C-CA4--0.29257  0.02043 -0.94429  3.36276
C-CA5--0.09593  2.55841 -0.73797  4.51670
C-CA6--0.31771  2.82405  1.70822  1.71263
O-OH--0.61982  4.31217  1.29785  3.48656
C-CA7--0.01422  1.55086  1.60408  1.15422
H-HA0-0.16621 -0.37952  0.67279  1.27542
C-CA8--0.00550  0.35800 -1.74108  4.45759
H-HA1-0.14932 -0.92711 -1.12348  2.85329
C-CA9--0.17577  1.62018 -1.63059  5.03935
H-HA2-0.12203  3.57393 -0.76112  4.91425
H-HA3-0.16309  3.50706  2.46390  1.32320
H-HO-0.43604  4.49943  2.23198  3.27839
H-HA4-0.10745  1.28627  2.20788  0.28523
H-HA5-0.08708 -0.30747 -2.54556  4.76668
H-HA6-0.12257  1.91253 -2.32705  5.82520
C-CA0--0.01205  7.90939  2.41257  2.58221
C-CA1-0.23885  9.20095  2.31535  3.15149
C-CA2-0.29435  6.95608  3.26474  3.17782
C-CA3--0.35342  9.52853  3.07929  4.27931
C-CA4--0.29257 10.13460  1.41344  2.62134
C-CA5--0.09593  7.59337  1.60607  1.47193
C-CA6--0.31771  7.31634  4.04329  4.28304
O-OH--0.61982  5.84056  3.64847  2.49480
C-CA7--0.01422  8.58647  3.93499  4.84769
H-HA0-0.16621 10.52592  3.02410  4.71491
C-CA8--0.00550  9.79630  0.60914  1.53251
H-HA1-0.14932 11.08780  1.24522  3.12408
C-CA9--0.17577  8.53347  0.71429  0.95124
H-HA2-0.12203  6.57717  1.57750  1.07650
H-HA3-0.16309  6.63183  4.79749  4.67342
H-HO-0.43604  5.65342  4.58154  2.70746
H-HA4-0.10745  8.84627  4.53242  5.72244
H-HA5-0.08708 10.46064 -0.19884  1.23164
H-HA6-0.12257  8.24194  0.01394  0.16846
C-CA0--0.01205  4.87843 -0.01117  8.40807
C-CA1-0.23885  6.17157  0.08666  8.97360
C-CA2-0.29435  3.92871 -0.86750  9.00358
C-CA3--0.35342  6.50653 -0.68638 10.09303
C-CA4--0.29257  7.10087  0.99451  8.44557
C-CA5--0.09593  4.55826  0.79703  7.30025
C-CA6--0.31771  4.29628 -1.65456 10.10014
O-OH--0.61982  2.80879 -1.24712  8.32552
C-CA7--0.01422  5.57120 -1.55349 10.65512
H-HA0-0.16621  7.50369 -0.62741 10.52849
C-CA8--0.00550  6.76192  1.79361  7.35286
H-HA1-0.14932  8.05038  1.17079  8.95246
C-CA9--0.17577  5.49769  1.68687  6.77472
H-HA2-0.12203  3.54006  0.82733  6.91006
H-HA3-0.16309  3.61114 -2.40635 10.49356
H-HO-0.43604  2.62292 -2.18139  8.53422
H-HA4-0.10745  5.83694 -2.15878 11.52270
H-HA5-0.08708  7.42758  2.59821  7.04437
H-HA6-0.12257  5.20417  2.38633  5.99190
C-CA0--0.01205 -0.79231  2.33081  9.23937
C-CA1-0.23885 -2.08203  2.43200  8.66659
C-CA2-0.29435  0.16125  1.47890  8.64403
C-CA3--0.35342 -2.40825  1.67070  7.53656
C-CA4--0.29257 -3.01472  3.33575  9.19529
C-CA5--0.09593 -0.47825  3.13286 10.35343
C-CA6--0.31771 -0.19899  0.70002  7.53899
O-OH--0.61982  1.27635  1.09554  9.32788
C-CA7--0.01422 -1.46693  0.81277  6.97026
H-HA0-0.16621 -3.40354  1.73084  7.09671
C-CA8--0.00550 -2.67782  4.13666 10.28710
H-HA1-0.14932 -3.96601  3.50728  8.69009
C-CA9--0.17577 -1.41698  4.02725 10.87182
H-HA2-0.12203  0.53560  3.15474 10.75526
H-HA3-0.16309  0.48318 -0.05809  7.15236
H-HO-0.43604  1.46329  0.16219  9.11617
H-HA4-0.10745 -1.72531  0.21792  6.09332
H-HA5-0.08708 -3.34216  4.94402 10.58969
H-HA6-0.12257 -1.12615  4.72468 11.65740
Tv 13.24083  0.01594 -0.15759
Tv -0.00395  4.70390  0.01079
Tv -6.00724 -0.05452 11.61860

