# amber(Print,SoftOnly) 

./data/naphol/res090/naphol_iniff90.gjf nmol_natom 1_19

0 1
C-CA0--0.01205  0.03438  0.45216 -0.00001
C-CA1-0.23885  0.39731 -0.91591  0.00001
C-CA2-0.29435 -1.33281  0.80008  0.00000
C-CA3--0.35342 -0.59591 -1.90583 -0.00001
C-CA4--0.29257  1.75135 -1.28476  0.00004
C-CA5--0.09593  1.05014  1.42762 -0.00005
C-CA6--0.31771 -2.31278 -0.19958  0.00000
O-OH--0.61982 -1.74838  2.10118  0.00001
C-CA7--0.01422 -1.94692 -1.54844 -0.00002
H-HA0-0.16621 -0.32266 -2.95882 -0.00002
C-CA8--0.00550  2.74832 -0.30386  0.00002
H-HA1-0.14932  2.03666 -2.33448  0.00008
C-CA9--0.17577  2.39739  1.04919 -0.00004
H-HA2-0.12203  0.80029  2.48666 -0.00010
H-HA3-0.16309 -3.36738  0.06575  0.00002
H-HO-0.43604 -2.72080  2.12111 -0.00018
H-HA4-0.10745 -2.71402 -2.32025 -0.00005
H-HA5-0.08708  3.79721 -0.59260  0.00006
H-HA6-0.12257  3.17425  1.81005 -0.00008

