# amber(Print,SoftOnly) 

./data/naphol/res090/naphol_lat_iniff90.gjf nmol_natom 4_19

0 1
C-CA0--0.01205  2.21172  0.01147  3.52088
C-CA1-0.23885  0.91062 -0.04804  2.96900
C-CA2-0.29435  3.14198  0.92105  2.97918
C-CA3--0.35342  0.56524  0.78035  1.89291
C-CA4--0.29257 -0.03637 -0.93706  3.49631
C-CA5--0.09593  2.53807 -0.83784  4.59586
C-CA6--0.31771  2.78350  1.74051  1.90361
O-OH--0.61982  4.40239  1.04599  3.48306
C-CA7--0.01422  1.49913  1.67182  1.36055
H-HA0-0.16621 -0.43196  0.73562  1.46506
C-CA8--0.00550  0.30295 -1.77227  4.56441
H-HA1-0.14932 -1.03569 -0.99192  3.07219
C-CA9--0.17577  1.58704 -1.72367  5.11231
H-HA2-0.12203  3.53385 -0.82387  5.03230
H-HA3-0.16309  3.50059  2.43973  1.48286
H-HO-0.43604  4.83142  1.81859  3.05873
H-HA4-0.10745  1.22911  2.31005  0.52275
H-HA5-0.08708 -0.42864 -2.46843  4.96184
H-HA6-0.12257  1.84852 -2.38144  5.93716
C-CA0--0.01205  7.93922  2.39462  2.65286
C-CA1-0.23885  9.22769  2.32143  3.23199
C-CA2-0.29435  7.00062  3.29911  3.18904
C-CA3--0.35342  9.55168  3.12882  4.33021
C-CA4--0.29257 10.18380  1.43906  2.71064
C-CA5--0.09593  7.63393  1.56306  1.55798
C-CA6--0.31771  7.33672  4.09621  4.28836
O-OH--0.61982  5.75410  3.44224  2.65661
C-CA7--0.01422  8.60826  4.01234  4.85893
H-HA0-0.16621 10.53949  3.07298  4.77822
C-CA8--0.00550  9.86485  0.62112  1.62348
H-HA1-0.14932 11.17377  1.37490  3.15499
C-CA9--0.17577  8.59305  0.68159  1.04933
H-HA2-0.12203  6.64802  1.58590  1.10056
H-HA3-0.16309  6.61267  4.79098  4.70527
H-HO-0.43604  5.31865  4.20851  3.08554
H-HA4-0.10745  8.86152  4.63356  5.71443
H-HA5-0.08708 10.60237 -0.07179  1.23262
H-HA6-0.12257  8.34751  0.03650  0.20992
C-CA0--0.01205  4.92365  0.00573  8.27577
C-CA1-0.23885  6.22347  0.07033  8.83006
C-CA2-0.29435  3.99539 -0.90605  8.81738
C-CA3--0.35342  6.56957 -0.75481  9.90827
C-CA4--0.29257  7.16870  0.96134  8.30341
C-CA5--0.09593  4.59672  0.85238  7.19880
C-CA6--0.31771  4.35468 -1.72259  9.89496
O-OH--0.61982  2.73613 -1.03590  8.31188
C-CA7--0.01422  5.63781 -1.64855 10.44025
H-HA0-0.16621  7.56558 -0.70560 10.33822
C-CA8--0.00550  6.82866  1.79410  7.23377
H-HA1-0.14932  8.16703  1.01957  8.72948
C-CA9--0.17577  5.54595  1.74060  6.68308
H-HA2-0.12203  3.60189  0.83464  6.76036
H-HA3-0.16309  3.63920 -2.42352 10.31584
H-HO-0.43604  2.30853 -1.80838  8.73770
H-HA4-0.10745  5.90845 -2.28400 11.27991
H-HA5-0.08708  7.55880  2.49221  6.83774
H-HA6-0.12257  5.28407  2.39648  5.85682
C-CA0--0.01205 -0.83581  2.38562  9.18054
C-CA1-0.23885 -2.12609  2.45385  8.60477
C-CA2-0.29435  0.10434  1.48335  8.64326
C-CA3--0.35342 -2.45051  1.64335  7.50891
C-CA4--0.29257 -3.08330  3.33473  9.12689
C-CA5--0.09593 -0.53013  3.22006 10.27309
C-CA6--0.31771 -0.23234  0.68317  7.54631
O-OH--0.61982  1.35323  1.34587  9.17186
C-CA7--0.01422 -1.50561  0.76215  6.97889
H-HA0-0.16621 -3.43988  1.69484  7.06378
C-CA8--0.00550 -2.76372  4.15596 10.21140
H-HA1-0.14932 -4.07458  3.39560  8.68506
C-CA9--0.17577 -1.49026  4.10013 10.78224
H-HA2-0.12203  0.45690  3.20063 10.72823
H-HA3-0.16309  0.49250 -0.01052  7.12907
H-HO-0.43604  1.78977  0.58011  8.74315
H-HA4-0.10745 -1.75951  0.13798  6.12570
H-HA5-0.08708 -3.50201  4.84777 10.60289
H-HA6-0.12257 -1.24436  4.74758 11.61971
Tv 13.29217  0.01171 -0.25287
Tv -0.02801  4.77991  0.02840
Tv -6.04295 -0.12859 11.20833

