# amber(Print,SoftOnly) 

./data/naphol/res086/naphol_optff86.gjf nmol_natom 1_19

0 1
C-CA0--0.00263  0.02684  0.46397  0.00007
C-CA1-0.23873  0.39272 -0.92180 -0.00006
C-CA2-0.29110 -1.34391  0.80732  0.00093
C-CA3--0.35651 -0.61311 -1.89726 -0.00006
C-CA4--0.29280  1.75280 -1.25556 -0.00005
C-CA5--0.08136  1.06853  1.40903 -0.00013
C-CA6--0.33244 -2.30616 -0.20177  0.00027
O-OH--0.62229 -1.76599  2.08682  0.00053
C-CA7--0.02115 -1.95319 -1.54262 -0.00005
H-HA0-0.16146 -0.34833 -2.94891 -0.00008
C-CA8--0.00488  2.75157 -0.29486 -0.00005
H-HA1-0.14796  2.04950 -2.29830  0.00005
C-CA9--0.17224  2.40836  1.04355 -0.00014
H-HA2-0.14787  0.83272  2.46828 -0.00002
H-HA3-0.14292 -3.35919  0.05716  0.00005
H-HO-0.44535 -2.72366  2.07354 -0.00137
H-HA4-0.09971 -2.72212 -2.30767 -0.00016
H-HA5-0.08668  3.79379 -0.59235  0.00006
H-HA6-0.12452  3.18447  1.80069 -0.00009

