%nprocshared=32
%mem=120GB
%chk=_conf003.chk
#P wB97XD/6-311++G(d,p) scf=maxcycle=512

_conf003.gjf nmol_natom 1_15 

0 1
C 
C    1     1.39016191 
C    1     1.39194539    2   119.89594200 
C    2     1.38669027    1   119.88075721    3     0.70825972 
H    2     0.98744251    1   119.71654057    3  -179.90726164 
C    1     1.48428757    2   119.93615286    4  -179.87772406 
C    3     1.40101108    1   119.72364540    2    -0.26266839 
H    3     0.99021540    1   119.18861590    2   178.85397616 
C    4     1.37899003    2   120.45785903    1    -0.48041454 
H    4     0.98347390    2   120.30442706    1   179.36166981 
O    6     1.27459751    1   118.00615353    2    -1.25976832 
O    6     1.26362572    1   118.77715367    2   179.20603801 
H    7     0.98977053    3   119.37861578    1  -178.93545741 
H    9     0.99498061    4   119.46722635    2  -178.58826714 
H   11     0.89680392    6   118.15823763    1  -255.00000000 

