%nprocshared=32
%mem=120GB
%chk=_conf006.chk
#P wB97XD/6-311++G(d,p) scf=maxcycle=512

_conf006.gjf nmol_natom 1_19 

0 1
C 
C    1     1.40879539 
C    1     1.42289824    2   117.24956717 
C    2     1.41887971    1   119.07594714    3     0.16510261 
C    2     1.42227783    1   117.46262303    3  -179.44443577 
C    1     1.42440336    2   119.00293897    4   179.73740031 
C    3     1.35510367    1   122.33979448    2    -0.36120568 
O    3     1.37615658    1   115.04370777    2  -179.59312860 
C    4     1.34577659    2   121.30210156    1     0.17277764 
H    4     0.93023405    2   119.33469462    1  -179.75965297 
C    5     1.34486794    2   122.06073707    1    -0.32265162 
H    5     0.92957893    2   118.96449269    1   179.64671542 
C    6     1.35980576    1   121.11124380    2     0.11625163 
H    6     0.92999796    1   119.43671105    2  -179.87270235 
H    7     0.93052813    3   120.28038366    1  -179.76477098 
H    8     0.81991994    3   109.48785721    1  -150.00000000 
H    9     0.93027331    4   119.71917791    2   179.60144151 
H   11     0.92987565    5   119.70372857    2  -179.69197286 
H   13     0.93032717    6   120.14524692    1   179.85241379 

