# amber(Print,SoftOnly) 

./data/naphol/res097/naphol_optff97.gjf nmol_natom 1_19

0 1
C-CA0--0.01205  0.03141  0.44682 -0.00061
C-CA1-0.23885  0.39463 -0.93401 -0.00031
C-CA2-0.29435 -1.33266  0.80369  0.00270
C-CA3--0.35342 -0.61170 -1.91163 -0.00081
C-CA4--0.29257  1.75497 -1.26545 -0.00010
C-CA5--0.09593  1.05526  1.40496  0.00001
C-CA6--0.31771 -2.30086 -0.19650 -0.00007
O-OH--0.61982 -1.74586  2.09678  0.00115
C-CA7--0.01422 -1.95003 -1.54037  0.00020
H-HA0-0.16621 -0.34923 -2.96409  0.00017
C-CA8--0.00550  2.73862 -0.29027  0.00011
H-HA1-0.14932  2.07184 -2.30320  0.00024
C-CA9--0.17577  2.39204  1.04621  0.00000
H-HA2-0.12203  0.81194  2.46025 -0.00054
H-HA3-0.16309 -3.34967  0.07379  0.00070
H-HO-0.43604 -2.70216  2.08833 -0.00264
H-HA4-0.10745 -2.72674 -2.29839 -0.00049
H-HA5-0.08708  3.78339 -0.57635  0.00001
H-HA6-0.12257  3.16045  1.80871 -0.00006

