# amber(Print,SoftOnly) 

./data/naphol/res097/naphol_lat_optff97.gjf nmol_natom 4_19

0 1
C-CA0--0.01205  2.31102  0.04908  3.33967
C-CA1-0.23885  1.01354 -0.04194  2.75412
C-CA2-0.29435  3.29709  0.85500  2.73474
C-CA3--0.35342  0.70954  0.74151  1.63386
C-CA4--0.29257  0.08400 -0.92020  3.32078
C-CA5--0.09593  2.58523 -0.72643  4.47468
C-CA6--0.31771  2.93281  1.65228  1.65356
O-OH--0.61982  4.38701  1.24946  3.43886
C-CA7--0.01422  1.67077  1.57516  1.08263
H-HA0-0.16621 -0.31138  0.80409  1.27986
C-CA8--0.00550  0.39501 -1.68120  4.43507
H-HA1-0.14932 -0.85115 -1.13099  2.81267
C-CA9--0.17577  1.65303 -1.60445  4.99741
H-HA2-0.12203  3.60514 -0.81400  4.82642
H-HA3-0.16309  3.65020  2.34879  1.24005
H-HO-0.43604  4.61046  2.13735  3.14177
H-HA4-0.10745  1.47918  2.07731  0.14165
H-HA5-0.08708 -0.25523 -2.49815  4.71402
H-HA6-0.12257  1.89185 -2.19145  5.87404
C-CA0--0.01205  7.82147  2.41888  2.57972
C-CA1-0.23885  9.13449  2.33449  3.13068
C-CA2-0.29435  6.85035  3.22711  3.20518
C-CA3--0.35342  9.47350  3.14210  4.22349
C-CA4--0.29257 10.05893  1.47527  2.52771
C-CA5--0.09593  7.51973  1.63848  1.45523
C-CA6--0.31771  7.24761  4.04702  4.25736
O-OH--0.61982  5.73850  3.60769  2.52864
C-CA7--0.01422  8.52482  3.97764  4.79423
H-HA0-0.16621 10.42794  3.00809  4.71648
C-CA8--0.00550  9.71998  0.70934  1.42527
H-HA1-0.14932 11.00221  1.25741  3.01717
C-CA9--0.17577  8.44575  0.77443  0.89990
H-HA2-0.12203  6.49176  1.54699  1.12939
H-HA3-0.16309  6.54677  4.76047  4.67029
H-HO-0.43604  5.52292  4.50064  2.81588
H-HA4-0.10745  8.74892  4.51415  5.70880
H-HA5-0.08708 10.37506 -0.09294  1.11805
H-HA6-0.12257  8.19109  0.19531  0.02283
C-CA0--0.01205  4.80690 -0.00665  8.48106
C-CA1-0.23885  6.10484  0.08590  9.06525
C-CA2-0.29435  3.82265 -0.81419  9.08658
C-CA3--0.35342  6.41113 -0.69772 10.18478
C-CA4--0.29257  7.03289  0.96475  8.49707
C-CA5--0.09593  4.53054  0.76815  7.34610
C-CA6--0.31771  4.18986 -1.61336 10.16540
O-OH--0.61982  2.73227 -1.20826  8.38317
C-CA7--0.01422  5.45227 -1.53457 10.73531
H-HA0-0.16621  7.43201 -0.75705 10.53941
C-CA8--0.00550  6.72023  1.72417  7.38214
H-HA1-0.14932  7.96759  1.17802  9.00494
C-CA9--0.17577  5.46161  1.64608  6.82134
H-HA2-0.12203  3.51002  0.85524  6.99596
H-HA3-0.16309  3.47467 -2.31277 10.57781
H-HO-0.43604  2.51023 -2.09714  8.67840
H-HA4-0.10745  5.64507 -2.03628 11.67624
H-HA5-0.08708  7.36937  2.54154  7.10188
H-HA6-0.12257  5.22064  2.23353  5.94562
C-CA0--0.01205 -0.70210  2.33932  9.23351
C-CA1-0.23885 -2.01466  2.42013  8.68087
C-CA2-0.29435  0.27171  1.53280  8.60997
C-CA3--0.35342 -2.35113  1.60934  7.58958
C-CA4--0.29257 -2.94168  3.27812  9.28173
C-CA5--0.09593 -0.40375  3.12093 10.35805
C-CA6--0.31771 -0.12272  0.71013  7.55901
O-OH--0.61982  1.38379  1.15540  9.28797
C-CA7--0.01422 -1.39934  0.77621  7.02044
H-HA0-0.16621 -3.30236  1.74589  7.09101
C-CA8--0.00550 -2.60655  4.04408 10.38536
H-HA1-0.14932 -3.88430  3.49448  8.79028
C-CA9--0.17577 -1.33308  3.98176 10.91288
H-HA2-0.12203  0.62371  3.21602 10.68437
H-HA3-0.16309  0.57915 -0.00452  7.15004
H-HO-0.43604  1.60220  0.26297  9.00125
H-HA4-0.10745 -1.62425  0.22978  6.11200
H-HA5-0.08708 -3.26380  4.84497 10.69174
H-HA6-0.12257 -1.08127  4.56104 11.79072
Tv 13.28773 -0.04836  0.03855
Tv  0.00043  4.71635  0.00094
Tv -6.14535  0.04987 11.82043

